file 3477460 1603145323                                         
version 2
run Default-0-20201019-23:56:02-75983
attr configname Default
attr datetime 20201019-23:56:02
attr experiment Default
attr inifile omnetpp.ini
attr iterationvars ""
attr iterationvarsf ""
attr measurement ""
attr network Scenario
attr processid 75983
attr repetition 0
attr replication #0
attr resultdir results
attr runnumber 0
attr seedset 0
param *.playgroundSizeX 2500m
param *.playgroundSizeY 2500m
param *.playgroundSizeZ 50m
param *.annotations.draw true
param *.obstacles.debug false
param *.world.useTorus false
param *.world.use2D false
param *.traciScenarioManager.updateInterval 0.01s
param *.traciScenarioManager.host "\"localhost\""
param *.traciScenarioManager.port 9999
param *.traciScenarioManager.autoShutdown true
param *.traciScenarioManager.launchConfig "xmldoc(\"ring.launchd.xml\")"
param *.traciScenarioManager.configFile "\"ring.sumo.cfg\""
param *.traciScenarioManager.moduleType "\"smart_car=org.car2x.veins.nodes.Car normal_car=0 human_car=0\""
param *.traciScenarioManager.moduleName "\"smart_car=node normal_car=0 human_car=0\""
param *.traciScenarioManager.moduleDisplayString "\"\""
param *.connectionManager.sendDirect true
param *.connectionManager.maxInterfDist 2600m
param *.connectionManager.drawMaxIntfDist false
param *.**.nic.mac1609_4.useServiceChannel false
param *.**.nic.mac1609_4.txPower 20mW
param *.**.nic.mac1609_4.bitrate 6Mbps
param *.**.nic.phy80211p.minPowerLevel -110dBm
param *.**.nic.phy80211p.useNoiseFloor true
param *.**.nic.phy80211p.noiseFloor -98dBm
param *.**.nic.phy80211p.decider "xmldoc(\"config.xml\")"
param *.**.nic.phy80211p.analogueModels "xmldoc(\"config.xml\")"
param *.**.nic.phy80211p.usePropagationDelay true
param *.**.nic.phy80211p.antenna "xmldoc(\"antenna.xml\", \"/root/Antenna[@id='monopole']\")"
param *.node[*].nic.phy80211p.antennaOffsetY "0 m"
param *.node[*].nic.phy80211p.antennaOffsetZ "1.895 m"
param *.node[*].applType "\"PhantomTrafficAppLayer\""
param *.node[*].appl.headerLength "80 bit"
param *.node[*].appl.sendBeacons true
param *.node[*].appl.dataOnSch false
param *.node[*].appl.beaconInterval 1s
param *.node[*].veinsmobility.x 0
param *.node[*].veinsmobility.y 0
param *.node[*].veinsmobility.z 0
param *.node[*].veinsmobility.setHostSpeed false
param *.trafficManager.stopVehiclesAt 50s
param *.trafficManager.stopVehiclesDuration 5s
param *.trafficManager.numberOfVehicles 100
param *.trafficManager.percentageOfSmartCars 0.05
param *.trafficManager.percentageOfBrakingCars 0.1

vector 0 Scenario.node[0].veinsmobility posx ETV
vector 1 Scenario.node[0].veinsmobility posy ETV
vector 2 Scenario.node[0].appl driveChange ETV
vector 3 Scenario.node[0].veinsmobility speed ETV
vector 4 Scenario.node[0].veinsmobility acceleration ETV
vector 5 Scenario.node[0].veinsmobility co2emission ETV
vector 6 Scenario.node[1].veinsmobility posx ETV
vector 7 Scenario.node[1].veinsmobility posy ETV
vector 8 Scenario.node[1].appl driveChange ETV
vector 9 Scenario.node[1].veinsmobility speed ETV
vector 10 Scenario.node[1].veinsmobility acceleration ETV
vector 11 Scenario.node[1].veinsmobility co2emission ETV
vector 12 Scenario.node[1].appl vehicleCount ETV
vector 13 Scenario.node[1].appl averageSpeed ETV
vector 14 Scenario.node[1].appl aboveThreshold ETV
vector 15 Scenario.node[1].appl beaconSize ETV
vector 16 Scenario.node[1].appl csSize ETV
vector 17 Scenario.node[1].appl ctSize ETV
vector 18 Scenario.node[1].appl clSize ETV
vector 19 Scenario.node[0].appl vehicleCount ETV
vector 20 Scenario.node[0].appl averageSpeed ETV
vector 21 Scenario.node[0].appl aboveThreshold ETV
vector 22 Scenario.node[0].appl beaconSize ETV
vector 23 Scenario.node[0].appl csSize ETV
vector 24 Scenario.node[0].appl ctSize ETV
vector 25 Scenario.node[0].appl clSize ETV
vector 26 Scenario.node[2].veinsmobility posx ETV
vector 27 Scenario.node[2].veinsmobility posy ETV
vector 28 Scenario.node[2].appl driveChange ETV
vector 29 Scenario.node[2].veinsmobility speed ETV
vector 30 Scenario.node[2].veinsmobility acceleration ETV
vector 31 Scenario.node[2].veinsmobility co2emission ETV
vector 32 Scenario.node[2].appl vehicleCount ETV
vector 33 Scenario.node[2].appl averageSpeed ETV
vector 34 Scenario.node[2].appl aboveThreshold ETV
vector 35 Scenario.node[2].appl beaconSize ETV
vector 36 Scenario.node[2].appl csSize ETV
vector 37 Scenario.node[2].appl ctSize ETV
vector 38 Scenario.node[2].appl clSize ETV
vector 39 Scenario.node[1].appl updateCsCt ETV
vector 40 Scenario.node[1].appl updateCsCt ETV
vector 41 Scenario.node[2].appl stopAcceleration ETV
vector 42 Scenario.node[3].veinsmobility posx ETV
vector 43 Scenario.node[3].veinsmobility posy ETV
vector 44 Scenario.node[3].appl driveChange ETV
vector 45 Scenario.node[3].veinsmobility speed ETV
vector 46 Scenario.node[3].veinsmobility acceleration ETV
vector 47 Scenario.node[3].veinsmobility co2emission ETV
vector 48 Scenario.node[3].appl vehicleCount ETV
vector 49 Scenario.node[3].appl averageSpeed ETV
vector 50 Scenario.node[3].appl aboveThreshold ETV
vector 51 Scenario.node[3].appl beaconSize ETV
vector 52 Scenario.node[3].appl csSize ETV
vector 53 Scenario.node[3].appl ctSize ETV
vector 54 Scenario.node[3].appl clSize ETV
vector 55 Scenario.node[2].appl updateCsCt ETV
vector 56 Scenario.node[2].appl updateCsCt ETV
vector 57 Scenario.node[3].appl stopAcceleration ETV
vector 58 Scenario.node[1].appl stopAcceleration ETV
vector 59 Scenario.node[3].appl updateCsCt ETV
vector 60 Scenario.node[3].appl updateCsCt ETV
vector 61 Scenario.node[4].veinsmobility posx ETV
vector 62 Scenario.node[4].veinsmobility posy ETV
vector 63 Scenario.node[4].appl driveChange ETV
vector 64 Scenario.node[4].veinsmobility speed ETV
vector 65 Scenario.node[4].veinsmobility acceleration ETV
vector 66 Scenario.node[4].veinsmobility co2emission ETV
vector 67 Scenario.node[4].appl vehicleCount ETV
vector 68 Scenario.node[4].appl averageSpeed ETV
vector 69 Scenario.node[4].appl aboveThreshold ETV
vector 70 Scenario.node[4].appl beaconSize ETV
vector 71 Scenario.node[4].appl csSize ETV
vector 72 Scenario.node[4].appl ctSize ETV
vector 73 Scenario.node[4].appl clSize ETV
vector 74 Scenario.node[4].appl updateCsCt ETV
vector 75 Scenario.node[4].appl updateCsCt ETV
vector 76 Scenario.node[4].appl stopAcceleration ETV
0	6264 156620 2 11011 0.01 54.99 5499 26.634954643715 423.3694090397 1085100.139798 324936094.86417
1	162884 156614 2 11011 0.01 54.99 5499 26.644074382757 423.36854831993 1352017.4970193 427875037.66593
2	319498 80246 2 11011 0.01 54.99 5499 0 0 0 0
3	399744 156600 3 11011 0.02 54.99 5498 26.457672092001 39.078634211297 165186.98997493 5085857.6417407
4	556344 168488 4 11011 0.03 54.99 5497 -2.9515877815427 3.8473717290753 -128.90430388848 4294.8643172469
5	724832 152885 4 11011 0.03 54.99 5497 -3.8250742485749 30.313261398591 31484.396332985 395192.00924989
6	877717 142056 594 11011 5.48 54.99 4952 29.865744791913 412.25048049698 1146193.9764729 365220626.62803
7	1019773 142058 594 11011 5.48 54.99 4952 29.869658714094 415.30218029877 798353.43368272 193997228.77557
8	1161831 73296 594 11011 5.48 54.99 4952 0 1 2374 2374
9	1235127 142133 595 11011 5.49 54.99 4951 4.0267702061076 27.752840691273 83529.683567434 1730097.764326
10	1377260 138788 596 11011 5.5 54.99 4950 -9 3.6393219364488 -2308.9951888061 21027.935053852
11	1516048 128184 596 11011 5.5 54.99 4950 -0.57685611647283 13.867866434291 17062.980055175 111197.10219532
12	1644232 3761 622 10969 5.612873603142 54.696449512665 145 0 3 252 546
13	1647993 5608 622 10969 5.612873603142 54.696449512665 145 0 24.214997050215 2549.551780041 50187.624494559
14	1653601 3761 622 10969 5.612873603142 54.696449512665 145 0 1 119 119
15	1657362 3761 622 10969 5.612873603142 54.696449512665 145 1 4 476 1678
16	1661123 3883 622 10969 5.612873603142 54.696449512665 145 0 98 7219 516713
17	1665006 3883 622 10969 5.612873603142 54.696449512665 145 0 98 7219 516713
18	1668889 3883 622 10969 5.612873603142 54.696449512665 145 0 98 7219 516713
19	1672772 3741 713 10977 6.371886235811 54.696450476332 144 0 0 0 0
20	1676513 3741 713 10977 6.371886235811 54.696450476332 144 0 0 0 0
21	1680254 3741 713 10977 6.371886235811 54.696450476332 144 0 0 0 0
22	1683995 3741 713 10977 6.371886235811 54.696450476332 144 1 4 475 1677
23	1687736 3848 713 10977 6.371886235811 54.696450476332 144 0 20 2074 37800
24	1691584 3848 713 10977 6.371886235811 54.696450476332 144 0 20 2074 37800
25	1695432 3848 713 10977 6.371886235811 54.696450476332 144 0 20 2074 37800
26	1699280 126860 1507 11011 12.51 54.99 4249 29.866083369845 395.94054707022 801744.15578407 222042152.38731
27	1826140 126850 1507 11011 12.51 54.99 4249 29.859798934292 412.185116 697669.36445372 181373736.25774
28	1952990 67851 1507 11011 12.51 54.99 4249 0 1 3163 3163
29	2020841 126857 1508 11011 12.52 54.99 4248 6.7286006524564 27.746070495942 79240.343153622 1612402.2266178
30	2147698 124064 1509 11011 12.53 54.99 4247 -9 3.4651434395359 -2101.5935652508 13155.661823484
31	2271762 114741 1509 11011 12.53 54.99 4247 -0.016163396036144 11.195281938701 13457.154696784 68220.631109961
32	2386503 3572 1538 10936 12.612871629993 54.612878368374 137 0 3 251 545
33	2390075 5409 1538 10936 12.612871629993 54.612878368374 137 0 27.123589428341 2376.7225763063 46132.564577073
34	2395484 3572 1538 10936 12.612871629993 54.612878368374 137 0 1 96 96
35	2399056 3572 1538 10936 12.612871629993 54.612878368374 137 1 4 467 1667
36	2402628 3692 1538 10936 12.612871629993 54.612878368374 137 0 97 6576 449448
37	2406320 3692 1538 10936 12.612871629993 54.612878368374 137 0 97 6576 449448
38	2410012 3692 1538 10936 12.612871629993 54.612878368374 137 0 97 6576 449448
39	2413704 3097 2052 10969 15.696446143516 54.696449512665 119 0 0 0 0
40	2416801 3097 2052 10969 15.696446143516 54.696449512665 119 1 1 119 119
41	2419898 50605 2146 11011 16.38 54.99 3163 1 1 3163 3163
42	2470503 98999 3051 11011 21.86 54.99 3314 29.873962480781 292.13878578605 372001.15269392 60559745.835149
43	2569502 99017 3051 11011 21.86 54.99 3314 29.866228356592 412.185116 663930.17576302 193178212.71826
44	2668519 53002 3051 11011 21.86 54.99 3314 0 1 1725 1725
45	2721521 99013 3052 11011 21.87 54.99 3313 11.381334407742 27.753639371451 64917.897900071 1321065.1485102
46	2820534 101853 3053 11011 21.88 54.99 3312 -8.9816382735155 1.9746505285148 -1350.6968447794 7959.4528275198
47	2922387 82859 3053 11011 21.88 54.99 3312 0.09751520867514 12.390671907565 13025.816522955 89544.602934052
48	3005246 3071 3156 10973 22.371891146232 54.696449840609 118 0 3 216 516
49	3008317 4378 3156 10973 22.371891146232 54.696449840609 118 0 22.580069821204 1283.5935081009 19624.243714701
50	3012695 3071 3156 10973 22.371891146232 54.696449840609 118 0 1 91 91
51	3015766 3071 3156 10973 22.371891146232 54.696449840609 118 1 4 427 1581
52	3018837 3189 3156 10973 22.371891146232 54.696449840609 118 14 95 5922 372796
53	3022026 3189 3156 10973 22.371891146232 54.696449840609 118 14 95 5922 372796
54	3025215 3189 3156 10973 22.371891146232 54.696449840609 118 14 95 5922 372796
55	3028404 2509 4604 10936 29.371887083105 54.612878368374 96 0 1 2 2
56	3030913 2457 4604 10936 29.371887083105 54.612878368374 94 1 1 94 94
57	3033370 27632 4821 11011 30.38 54.99 1725 1 1 1725 1725
58	3061002 38076 4990 11011 31.26 54.99 2374 1 1 2374 2374
59	3099078 2474 5028 10973 31.371885010548 54.696449840609 95 0 1 13 13
60	3101552 2135 5028 10973 31.371885010548 54.696449840609 82 1 1 82 82
61	3103687 57416 5961 11011 35.84 54.99 1916 29.861825446145 195.204058 137150.06368714 13787722.849657
62	3161103 57407 5961 11011 35.84 54.99 1916 180.12993417831 412.185116 581946.17846356 186128887.51801
63	3218510 30802 5961 11011 35.84 54.99 1916 0 1 726 726
64	3249312 57360 5962 11011 35.85 54.99 1915 12.958406766634 27.750558331489 32033.825680771 567597.34829167
65	3306672 60017 5963 11011 35.86 54.99 1914 -1.9444444444446 0.5344018352341 -1444.2776630581 2865.6994566184
66	3366689 46912 5963 11011 35.86 54.99 1914 0.973 3.8854185343923 3299.1872867178 7692.658281591
67	3413601 1982 6056 10981 36.256210503093 54.696450576177 76 0 3 90 270
68	3415583 2398 6056 10981 36.256210503093 54.696450576177 76 0 14.033647407292 343.06297927365 3978.9023401248
69	3417981 1982 6056 10981 36.256210503093 54.696450576177 76 0 1 30 30
70	3419963 1982 6056 10981 36.256210503093 54.696450576177 76 1 4 298 1182
71	3421945 2058 6056 10981 36.256210503093 54.696450576177 76 19 31 1666 37302
72	3424003 2058 6056 10981 36.256210503093 54.696450576177 76 19 31 1666 37302
73	3426061 2058 6056 10981 36.256210503093 54.696450576177 76 19 31 1666 37302
74	3428119 790 9073 10981 47.612874886409 54.696450576177 30 0 1 1 1
75	3428909 764 9073 10981 47.612874886409 54.696450576177 29 1 1 29 29
76	3429673 11893 9086 11011 47.62 54.99 726 1 1 726 726
0	3441566 27 11012 11012 55 55 1 68.951967411889 68.951967411889 68.951967411889 4754.3738099701
1	3441593 27 11012 11012 55 55 1 103.95077458811 103.95077458811 103.95077458811 10805.763537468
2	3441620 13 11012 11012 55 55 1 0 0 0 0
3	3441633 27 11012 11012 55 55 1 26.518982303921 26.518982303921 26.518982303921 703.25642243569
4	3441660 30 11012 11012 55 55 1 -0.011763449201041 -0.011763449201041 -0.011763449201041 0.00013837873710547
5	3441690 27 11012 11012 55 55 1 4.0369279059029 4.0369279059029 4.0369279059029 16.296786917457
6	3441717 27 11012 11012 55 55 1 412.25775395693 412.25775395693 412.25775395693 169956.45569762
7	3441744 27 11012 11012 55 55 1 175.24190182749 175.24190182749 175.24190182749 30709.724156117
8	3441771 13 11012 11012 55 55 1 1 1 1 1
9	3441784 27 11012 11012 55 55 1 4.6843131590472 4.6843131590472 4.6843131590472 21.942789772023
10	3441811 28 11012 11012 55 55 1 2.1424355834371 2.1424355834371 2.1424355834371 4.5900302291773
11	3441839 28 11012 11012 55 55 1 3.7641038516024 3.7641038516024 3.7641038516024 14.168477805648
26	3441867 28 11012 11012 55 55 1 395.97107221263 395.97107221263 395.97107221263 156793.09002922
27	3441895 28 11012 11012 55 55 1 136.01320878444 136.01320878444 136.01320878444 18499.592963841
28	3441923 14 11012 11012 55 55 1 1 1 1 1
29	3441937 28 11012 11012 55 55 1 6.7315355133134 6.7315355133134 6.7315355133134 45.313570366999
30	3441965 29 11012 11012 55 55 1 0.14006698785725 0.14006698785725 0.14006698785725 0.019618761087402
31	3441994 28 11012 11012 55 55 1 1.6901382770685 1.6901382770685 1.6901382770685 2.8565673956122
41	3442022 14 11012 11012 55 55 1 1 1 1 1
42	3442036 28 11012 11012 55 55 1 292.26567616549 292.26567616549 292.26567616549 85419.225464472
43	3442064 28 11012 11012 55 55 1 42.961910810074 42.961910810074 42.961910810074 1845.7257804528
44	3442092 14 11012 11012 55 55 1 1 1 1 1
45	3442106 27 11012 11012 55 55 1 14.23485081144 14.23485081144 14.23485081144 202.63097762395
46	3442133 29 11012 11012 55 55 1 -1.1820112216924 -1.1820112216924 -1.1820112216924 1.3971505282067
47	3442162 18 11012 11012 55 55 1 0.973 0.973 0.973 0.946729
57	3442180 14 11012 11012 55 55 1 1 1 1 1
58	3442194 14 11012 11012 55 55 1 1 1 1 1
61	3442208 28 11012 11012 55 55 1 36.988713096962 36.988713096962 36.988713096962 1368.1648965694
62	3442236 28 11012 11012 55 55 1 179.99862679884 179.99862679884 179.99862679884 32399.505649469
63	3442264 14 11012 11012 55 55 1 1 1 1 1
64	3442278 28 11012 11012 55 55 1 13.313028037234 13.313028037234 13.313028037234 177.23671552018
65	3442306 28 11012 11012 55 55 1 0.5246336326298 0.5246336326298 0.5246336326298 0.27524044848634
66	3442334 28 11012 11012 55 55 1 3.6534491437758 3.6534491437758 3.6534491437758 13.347690646156
76	3442362 14 11012 11012 55 55 1 1 1 1 1
0	3442376 30 11013 11013 55.01 55.01 1 69.139374322653 69.139374322653 69.139374322653 4780.2530817279
1	3442406 30 11013 11013 55.01 55.01 1 103.76336767735 103.76336767735 103.76336767735 10766.836471744
2	3442436 16 11013 11013 55.01 55.01 1 0 0 0 0
3	3442452 30 11013 11013 55.01 55.01 1 26.518864756882 26.518864756882 26.518864756882 703.2501879938
4	3442482 33 11013 11013 55.01 55.01 1 -0.011754703915301 -0.011754703915301 -0.011754703915301 0.00013817306413639
5	3442515 30 11013 11013 55.01 55.01 1 4.0369555506099 4.0369555506099 4.0369555506099 16.2970101176
6	3442545 30 11013 11013 55.01 55.01 1 412.26506053882 412.26506053882 412.26506053882 169962.48014108
7	3442575 29 11013 11013 55.01 55.01 1 175.2880250935 175.2880250935 175.2880250935 30725.891741178
8	3442604 16 11013 11013 55.01 55.01 1 1 1 1 1
9	3442620 30 11013 11013 55.01 55.01 1 4.7061902989031 4.7061902989031 4.7061902989031 22.148227129489
10	3442650 31 11013 11013 55.01 55.01 1 2.1877139855849 2.1877139855849 2.1877139855849 4.786092482724
11	3442681 31 11013 11013 55.01 55.01 1 3.8279430180147 3.8279430180147 3.8279430180147 14.653147749168
26	3442712 31 11013 11013 55.01 55.01 1 396.00160401146 396.00160401146 396.00160401146 156817.27037965
27	3442743 31 11013 11013 55.01 55.01 1 136.07313321588 136.07313321588 136.07313321588 18515.897583186
28	3442774 17 11013 11013 55.01 55.01 1 1 1 1 1
29	3442791 31 11013 11013 55.01 55.01 1 6.6871698824319 6.6871698824319 6.6871698824319 44.718241036505
30	3442822 32 11013 11013 55.01 55.01 1 -4.4365630881445 -4.4365630881445 -4.4365630881445 19.683092035086
31	3442854 21 11013 11013 55.01 55.01 1 0.973 0.973 0.973 0.946729
41	3442875 17 11013 11013 55.01 55.01 1 1 1 1 1
42	3442892 31 11013 11013 55.01 55.01 1 292.39246124898 292.39246124898 292.39246124898 85493.351395234
43	3442923 31 11013 11013 55.01 55.01 1 43.026508446312 43.026508446312 43.026508446312 1851.2804290805
44	3442954 17 11013 11013 55.01 55.01 1 1 1 1 1
45	3442971 31 11013 11013 55.01 55.01 1 14.223044640874 14.223044640874 14.223044640874 202.29499885629
46	3443002 32 11013 11013 55.01 55.01 1 -1.1806170565993 -1.1806170565993 -1.1806170565993 1.3938566343333
47	3443034 21 11013 11013 55.01 55.01 1 0.973 0.973 0.973 0.946729
57	3443055 17 11013 11013 55.01 55.01 1 1 1 1 1
58	3443072 17 11013 11013 55.01 55.01 1 1 1 1 1
61	3443089 31 11013 11013 55.01 55.01 1 37.009522225407 37.009522225407 37.009522225407 1369.7047353529
62	3443120 31 11013 11013 55.01 55.01 1 179.86726784311 179.86726784311 179.86726784311 32352.234041347
63	3443151 17 11013 11013 55.01 55.01 1 1 1 1 1
64	3443168 31 11013 11013 55.01 55.01 1 13.318314789411 13.318314789411 13.318314789411 177.37750882984
65	3443199 31 11013 11013 55.01 55.01 1 0.5286752176735 0.5286752176735 0.5286752176735 0.27949748578212
66	3443230 31 11013 11013 55.01 55.01 1 3.6676047297704 3.6676047297704 3.6676047297704 13.451324453835
76	3443261 17 11013 11013 55.01 55.01 1 1 1 1 1
0	3443278 30 11014 11014 55.02 55.02 1 69.326780402418 69.326780402418 69.326780402418 4806.202480965
1	3443308 30 11014 11014 55.02 55.02 1 103.57596159758 103.57596159758 103.57596159758 10727.979820864
2	3443338 16 11014 11014 55.02 55.02 1 0 0 0 0
3	3443354 30 11014 11014 55.02 55.02 1 26.518747295857 26.518747295857 26.518747295857 703.24395814152
4	3443384 33 11014 11014 55.02 55.02 1 -0.011746102519083 -0.011746102519083 -0.011746102519083 0.00013797092438882
5	3443417 30 11014 11014 55.02 55.02 1 4.0369822960935 4.0369822960935 4.0369822960935 16.297226058972
6	3443447 29 11014 11014 55.02 55.02 1 412.2724009689 412.2724009689 412.2724009689 169968.53260066
7	3443476 29 11014 11014 55.02 55.02 1 175.3343620284 175.3343620284 175.3343620284 30742.138507907
8	3443505 16 11014 11014 55.02 55.02 1 1 1 1 1
9	3443521 30 11014 11014 55.02 55.02 1 4.7284981470994 4.7284981470994 4.7284981470994 22.358694727122
10	3443551 31 11014 11014 55.02 55.02 1 2.2307848196323 2.2307848196323 2.2307848196323 4.9764009115017
11	3443582 31 11014 11014 55.02 55.02 1 3.8900004418264 3.8900004418264 3.8900004418264 15.13210343741
26	3443613 31 11014 11014 55.02 55.02 1 396.03203836343 396.03203836343 396.03203836343 156841.37541029
27	3443644 31 11014 11014 55.02 55.02 1 136.13286638941 136.13286638941 136.13286638941 18532.157311396
28	3443675 17 11014 11014 55.02 55.02 1 1 1 1 1
29	3443692 30 11014 11014 55.02 55.02 1 6.689096995072 6.689096995072 6.689096995072 44.744018609481
30	3443722 32 11014 11014 55.02 55.02 1 0.19271126400477 0.19271126400477 0.19271126400477 0.037137631274318
31	3443754 31 11014 11014 55.02 55.02 1 1.7709952733295 1.7709952733295 1.7709952733295 3.1364242581553
41	3443785 17 11014 11014 55.02 55.02 1 1 1 1 1
42	3443802 30 11014 11014 55.02 55.02 1 292.5191411604 292.5191411604 292.5191411604 85567.447945219
43	3443832 31 11014 11014 55.02 55.02 1 43.091052496859 43.091052496859 43.091052496859 1856.838805287
44	3443863 17 11014 11014 55.02 55.02 1 1 1 1 1
45	3443880 31 11014 11014 55.02 55.02 1 14.211252462359 14.211252462359 14.211252462359 201.95969654891
46	3443911 31 11014 11014 55.02 55.02 1 -1.179217851494 -1.179217851494 -1.179217851494 1.390554741282
47	3443942 21 11014 11014 55.02 55.02 1 0.973 0.973 0.973 0.946729
57	3443963 17 11014 11014 55.02 55.02 1 1 1 1 1
58	3443980 17 11014 11014 55.02 55.02 1 1 1 1 1
61	3443997 31 11014 11014 55.02 55.02 1 37.030339587426 37.030339587426 37.030339587426 1371.2460499601
62	3444028 31 11014 11014 55.02 55.02 1 179.73585691243 179.73585691243 179.73585691243 32304.978260044
63	3444059 17 11014 11014 55.02 55.02 1 1 1 1 1
64	3444076 31 11014 11014 55.02 55.02 1 13.323641989968 13.323641989968 13.323641989968 177.51943587684
65	3444107 32 11014 11014 55.02 55.02 1 0.53272005571632 0.53272005571632 0.53272005571632 0.2837906577624
66	3444139 31 11014 11014 55.02 55.02 1 3.6817904004119 3.6817904004119 3.6817904004119 13.555580552565
76	3444170 17 11014 11014 55.02 55.02 1 1 1 1 1
0	3444187 30 11015 11015 55.03 55.03 1 69.514185651795 69.514185651795 69.514185651795 4832.2220068322
1	3444217 29 11015 11015 55.03 55.03 1 103.3885563482 103.3885563482 103.3885563482 10689.193583766
2	3444246 16 11015 11015 55.03 55.03 1 0 0 0 0
3	3444262 30 11015 11015 55.03 55.03 1 26.518629919406 26.518629919406 26.518629919406 703.23773280241
4	3444292 33 11015 11015 55.03 55.03 1 -0.011737645097298 -0.011737645097298 -0.011737645097298 0.00013777231243013
5	3444325 30 11015 11015 55.03 55.03 1 4.0370081414773 4.0370081414773 4.0370081414773 16.297434734354
6	3444355 30 11015 11015 55.03 55.03 1 412.27977593779 412.27977593779 412.27977593779 169974.61364732
7	3444385 30 11015 11015 55.03 55.03 1 175.38091699176 175.38091699176 175.38091699176 30758.46604487
8	3444415 16 11015 11015 55.03 55.03 1 1 1 1 1
9	3444431 30 11015 11015 55.03 55.03 1 4.7512159637351 4.7512159637351 4.7512159637351 22.574053134051
10	3444461 31 11015 11015 55.03 55.03 1 2.2717816635675 2.2717816635675 2.2717816635675 5.1609919269214
11	3444492 31 11015 11015 55.03 55.03 1 3.9503944798723 3.9503944798723 3.9503944798723 15.605616546605
26	3444523 31 11015 11015 55.03 55.03 1 396.06237646253 396.06237646253 396.06237646253 156865.40604915
27	3444554 31 11015 11015 55.03 55.03 1 136.19241064848 136.19241064848 136.19241064848 18548.372718245
28	3444585 17 11015 11015 55.03 55.03 1 1 1 1 1
29	3444602 31 11015 11015 55.03 55.03 1 6.6908882947485 6.6908882947485 6.6908882947485 44.767986172803
30	3444633 31 11015 11015 55.03 55.03 1 0.1791299676559 0.1791299676559 0.1791299676559 0.032087545312404
31	3444664 30 11015 11015 55.03 55.03 1 1.749287202374 1.749287202374 1.749287202374 3.0600057163894
41	3444694 17 11015 11015 55.03 55.03 1 1 1 1 1
42	3444711 31 11015 11015 55.03 55.03 1 292.64571602412 292.64571602412 292.64571602412 85641.515107268
43	3444742 30 11015 11015 55.03 55.03 1 43.15554302507 43.15554302507 43.15554302507 1862.4008937886
44	3444772 17 11015 11015 55.03 55.03 1 1 1 1 1
45	3444789 31 11015 11015 55.03 55.03 1 14.199474326379 14.199474326379 14.199474326379 201.62507114549
46	3444820 32 11015 11015 55.03 55.03 1 -1.1778135980451 -1.1778135980451 -1.1778135980451 1.38724487174
47	3444852 21 11015 11015 55.03 55.03 1 0.973 0.973 0.973 0.946729
57	3444873 17 11015 11015 55.03 55.03 1 1 1 1 1
58	3444890 17 11015 11015 55.03 55.03 1 1 1 1 1
61	3444907 31 11015 11015 55.03 55.03 1 37.051165246228 37.051165246228 37.051165246228 1372.7888461033
62	3444938 31 11015 11015 55.03 55.03 1 179.60439360776 179.60439360776 179.60439360776 32257.738203211
63	3444969 17 11015 11015 55.03 55.03 1 1 1 1 1
64	3444986 31 11015 11015 55.03 55.03 1 13.329009670563 13.329009670563 13.329009670563 177.66249879797
65	3445017 32 11015 11015 55.03 55.03 1 0.53676805952421 0.53676805952421 0.53676805952421 0.28811994972538
66	3445049 30 11015 11015 55.03 55.03 1 3.696006018334 3.696006018334 3.696006018334 13.660460487561
76	3445079 17 11015 11015 55.03 55.03 1 1 1 1 1
0	3445096 30 11016 11016 55.04 55.04 1 69.701590071388 69.701590071388 69.701590071388 4858.3116584799
1	3445126 30 11016 11016 55.04 55.04 1 103.20115192861 103.20115192861 103.20115192861 10650.477759392
2	3445156 16 11016 11016 55.04 55.04 1 0 0 0 0
3	3445172 30 11016 11016 55.04 55.04 1 26.518512626089 26.518512626089 26.518512626089 703.23151190002
4	3445202 33 11016 11016 55.04 55.04 1 -0.011729331732724 -0.011729331732724 -0.011729331732724 0.00013757722289628
5	3445235 30 11016 11016 55.04 55.04 1 4.0370330858985 4.0370330858985 4.0370330858985 16.297636136639
6	3445265 30 11016 11016 55.04 55.04 1 412.28718610264 412.28718610264 412.28718610264 169980.72382444
7	3445295 30 11016 11016 55.04 55.04 1 175.42769413184 175.42769413184 175.42769413184 30774.875868415
8	3445325 16 11016 11016 55.04 55.04 1 1 1 1 1
9	3445341 30 11016 11016 55.04 55.04 1 4.7743242422254 4.7743242422254 4.7743242422254 22.794171969901
10	3445371 31 11016 11016 55.04 55.04 1 2.3108278490362 2.3108278490362 2.3108278490362 5.3399253478813
11	3445402 31 11016 11016 55.04 55.04 1 4.0092332784124 4.0092332784124 4.0092332784124 16.073951480729
26	3445433 30 11016 11016 55.04 55.04 1 396.0927229952 396.0927229952 396.0927229952 156889.44520975
27	3445463 31 11016 11016 55.04 55.04 1 136.25197146002 136.25197146002 136.25197146002 18564.599726742
28	3445494 17 11016 11016 55.04 55.04 1 1 1 1 1
29	3445511 31 11016 11016 55.04 55.04 1 6.6467168332107 6.6467168332107 6.6467168332107 44.178844660887
30	3445542 32 11016 11016 55.04 55.04 1 -4.4171461537786 -4.4171461537786 -4.4171461537786 19.511180143841
31	3445574 21 11016 11016 55.04 55.04 1 0.973 0.973 0.973 0.946729
41	3445595 17 11016 11016 55.04 55.04 1 1 1 1 1
42	3445612 31 11016 11016 55.04 55.04 1 292.77218596492 292.77218596492 292.77218596492 85715.552874675
43	3445643 31 11016 11016 55.04 55.04 1 43.219980094529 43.219980094529 43.219980094529 1867.9666793715
44	3445674 17 11016 11016 55.04 55.04 1 1 1 1 1
45	3445691 31 11016 11016 55.04 55.04 1 14.187710283494 14.187710283494 14.187710283494 201.29112308836
46	3445722 32 11016 11016 55.04 55.04 1 -1.1764042884565 -1.1764042884565 -1.1764042884565 1.3839270498988
47	3445754 21 11016 11016 55.04 55.04 1 0.973 0.973 0.973 0.946729
57	3445775 17 11016 11016 55.04 55.04 1 1 1 1 1
58	3445792 17 11016 11016 55.04 55.04 1 1 1 1 1
61	3445809 31 11016 11016 55.04 55.04 1 37.071999265075 37.071999265075 37.071999265075 1374.3331295097
62	3445840 31 11016 11016 55.04 55.04 1 179.47287752978 179.47287752978 179.47287752978 32210.513768818
63	3445871 17 11016 11016 55.04 55.04 1 1 1 1 1
64	3445888 30 11016 11016 55.04 55.04 1 13.33441786196 13.33441786196 13.33441786196 177.80669971736
65	3445918 32 11016 11016 55.04 55.04 1 0.54081913969508 0.54081913969508 0.54081913969508 0.29248534186053
66	3445950 30 11016 11016 55.04 55.04 1 3.710251438904 3.710251438904 3.710251438904 13.765965739889
76	3445980 17 11016 11016 55.04 55.04 1 1 1 1 1
0	3445997 29 11017 11017 55.05 55.05 1 69.88899366179 69.88899366179 69.88899366179 4884.4714350577
1	3446026 30 11017 11017 55.05 55.05 1 103.01374833821 103.01374833821 103.01374833821 10611.832346688
2	3446056 16 11017 11017 55.05 55.05 1 0 0 0 0
3	3446072 30 11017 11017 55.05 55.05 1 26.518395414463 26.518395414463 26.518395414463 703.22529535784
4	3446102 33 11017 11017 55.05 55.05 1 -0.011721162508138 -0.011721162508138 -0.011721162508138 0.00013738565054218
5	3446135 30 11017 11017 55.05 55.05 1 4.0370571284938 4.0370571284938 4.0370571284938 16.297830258723
6	3446165 30 11017 11017 55.05 55.05 1 412.29463208913 412.29463208913 412.29463208913 169986.86364951
7	3446195 30 11017 11017 55.05 55.05 1 175.47469739833 175.47469739833 175.47469739833 30791.369427034
8	3446225 16 11017 11017 55.05 55.05 1 1 1 1 1
9	3446241 30 11017 11017 55.05 55.05 1 4.7978046162314 4.7978046162314 4.7978046162314 23.018929135531
10	3446271 31 11017 11017 55.05 55.05 1 2.3480374005961 2.3480374005961 2.3480374005961 5.5132796345979
11	3446302 31 11017 11017 55.05 55.05 1 4.0666157959671 4.0666157959671 4.0666157959671 16.537364032009
26	3446333 31 11017 11017 55.05 55.05 1 396.12297340736 396.12297340736 396.12297340736 156913.41006109
27	3446364 31 11017 11017 55.05 55.05 1 136.31134361688 136.31134361688 136.31134361688 18580.782398638
28	3446395 17 11017 11017 55.05 55.05 1 1 1 1 1
29	3446412 31 11017 11017 55.05 55.05 1 6.6490299567887 6.6490299567887 6.6490299567887 44.209599366274
30	3446443 32 11017 11017 55.05 55.05 1 0.23131235779985 0.23131235779985 0.23131235779985 0.053505406870926
31	3446475 31 11017 11017 55.05 55.05 1 1.8285627386327 1.8285627386327 1.8285627386327 3.3436416891159
41	3446506 17 11017 11017 55.05 55.05 1 1 1 1 1
42	3446523 31 11017 11017 55.05 55.05 1 292.89855110805 292.89855110805 292.89855110805 85789.561241193
43	3446554 31 11017 11017 55.05 55.05 1 43.284363769049 43.284363769049 43.284363769049 1873.5361468914
44	3446585 17 11017 11017 55.05 55.05 1 1 1 1 1
45	3446602 31 11017 11017 55.05 55.05 1 14.175960384339 14.175960384339 14.175960384339 200.95785281836
46	3446633 31 11017 11017 55.05 55.05 1 -1.174989915468 -1.174989915468 -1.174989915468 1.3806013014514
47	3446664 21 11017 11017 55.05 55.05 1 0.973 0.973 0.973 0.946729
57	3446685 17 11017 11017 55.05 55.05 1 1 1 1 1
58	3446702 17 11017 11017 55.05 55.05 1 1 1 1 1
61	3446719 31 11017 11017 55.05 55.05 1 37.092841707276 37.092841707276 37.092841707276 1375.8789059211
62	3446750 31 11017 11017 55.05 55.05 1 179.34130827883 179.34130827883 179.34130827883 32163.304855163
63	3446781 17 11017 11017 55.05 55.05 1 1 1 1 1
64	3446798 31 11017 11017 55.05 55.05 1 13.339866594007 13.339866594007 13.339866594007 177.95204074591
65	3446829 32 11017 11017 55.05 55.05 1 0.54487320470802 0.54487320470802 0.54487320470802 0.29688680920879
66	3446861 31 11017 11017 55.05 55.05 1 3.7245265103486 3.7245265103486 3.7245265103486 13.87209772629
76	3446892 17 11017 11017 55.05 55.05 1 1 1 1 1
0	3446909 30 11018 11018 55.06 55.06 1 70.076396423582 70.076396423582 70.076396423582 4910.7013357151
1	3446939 30 11018 11018 55.06 55.06 1 102.82634557642 102.82634557642 102.82634557642 10573.257344601
2	3446969 16 11018 11018 55.06 55.06 1 0 0 0 0
3	3446985 30 11018 11018 55.06 55.06 1 26.518278283088 26.518278283088 26.518278283088 703.21908309932
4	3447015 33 11018 11018 55.06 55.06 1 -0.011713137505964 -0.011713137505964 -0.011713137505964 0.00013719759023363
5	3447048 30 11018 11018 55.06 55.06 1 4.0370802684023 4.0370802684023 4.0370802684023 16.298017093523
6	3447078 30 11018 11018 55.06 55.06 1 412.30211449334 412.30211449334 412.30211449334 169993.03361568
7	3447108 30 11018 11018 55.06 55.06 1 175.52193055402 175.52193055402 175.52193055402 30807.948105409
8	3447138 16 11018 11018 55.06 55.06 1 1 1 1 1
9	3447154 30 11018 11018 55.06 55.06 1 4.8216397749853 4.8216397749853 4.8216397749853 23.24821011972
10	3447184 31 11018 11018 55.06 55.06 1 2.3835158753911 2.3835158753911 2.3835158753911 5.6811479282416
11	3447215 31 11018 11018 55.06 55.06 1 4.1226327093434 4.1226327093434 4.1226327093434 16.996100456148
26	3447246 31 11018 11018 55.06 55.06 1 396.15312888254 396.15312888254 396.15312888254 156937.30152343
27	3447277 31 11018 11018 55.06 55.06 1 136.37052944195 136.37052944195 136.37052944195 18596.921300277
28	3447308 17 11018 11018 55.06 55.06 1 1 1 1 1
29	3447325 31 11018 11018 55.06 55.06 1 6.6051174959702 6.6051174959702 6.6051174959702 43.627577135572
30	3447356 32 11018 11018 55.06 55.06 1 -4.3912460818524 -4.3912460818524 -4.3912460818524 19.283042151384
31	3447388 21 11018 11018 55.06 55.06 1 0.973 0.973 0.973 0.946729
41	3447409 17 11018 11018 55.06 55.06 1 1 1 1 1
42	3447426 30 11018 11018 55.06 55.06 1 293.0248115792 293.0248115792 293.0248115792 85863.540201027
43	3447456 31 11018 11018 55.06 55.06 1 43.348694112673 43.348694112673 43.348694112673 1879.1092812741
44	3447487 17 11018 11018 55.06 55.06 1 1 1 1 1
45	3447504 31 11018 11018 55.06 55.06 1 14.164224679616 14.164224679616 14.164224679616 200.62526077464
46	3447535 32 11018 11018 55.06 55.06 1 -1.1735704723579 -1.1735704723579 -1.1735704723579 1.3772676535903
47	3447567 21 11018 11018 55.06 55.06 1 0.973 0.973 0.973 0.946729
57	3447588 17 11018 11018 55.06 55.06 1 1 1 1 1
58	3447605 17 11018 11018 55.06 55.06 1 1 1 1 1
61	3447622 31 11018 11018 55.06 55.06 1 37.113692636188 37.113692636188 37.113692636188 1377.4261810934
62	3447653 31 11018 11018 55.06 55.06 1 179.20968545498 179.20968545498 179.20968545498 32116.111360873
63	3447684 17 11018 11018 55.06 55.06 1 1 1 1 1
64	3447701 31 11018 11018 55.06 55.06 1 13.345355895617 13.345355895617 13.345355895617 178.09852398068
65	3447732 32 11018 11018 55.06 55.06 1 0.54893016097122 0.54893016097122 0.54893016097122 0.30132432162389
66	3447764 31 11018 11018 55.06 55.06 1 3.7388310738772 3.7388310738772 3.7388310738772 13.97885779899
76	3447795 17 11018 11018 55.06 55.06 1 1 1 1 1
0	3447812 30 11019 11019 55.07 55.07 1 70.263798357338 70.263798357338 70.263798357338 4937.0013596006
1	3447842 30 11019 11019 55.07 55.07 1 102.63894364266 102.63894364266 102.63894364266 10534.752752082
2	3447872 16 11019 11019 55.07 55.07 1 0 0 0 0
3	3447888 29 11019 11019 55.07 55.07 1 26.51816123052 26.51816123052 26.51816123052 703.21287504787
4	3447917 33 11019 11019 55.07 55.07 1 -0.011705256807204 -0.011705256807204 -0.011705256807204 0.0001370130369226
5	3447950 30 11019 11019 55.07 55.07 1 4.0371025047717 4.0371025047717 4.0371025047717 16.298196634034
6	3447980 30 11019 11019 55.07 55.07 1 412.30963388347 412.30963388347 412.30963388347 169999.23419312
7	3448010 30 11019 11019 55.07 55.07 1 175.56939718566 175.56939718566 175.56939718566 30824.613228136
8	3448040 16 11019 11019 55.07 55.07 1 1 1 1 1
9	3448056 30 11019 11019 55.07 55.07 1 4.8458133861371 4.8458133861371 4.8458133861371 23.481907373266
10	3448086 31 11019 11019 55.07 55.07 1 2.4173611151859 2.4173611151859 2.4173611151859 5.8436347612129
11	3448117 31 11019 11019 55.07 55.07 1 4.1773672177947 4.1773672177947 4.1773672177947 17.450396872306
26	3448148 31 11019 11019 55.07 55.07 1 396.18319000817 396.18319000817 396.18319000817 156961.12004505
27	3448179 31 11019 11019 55.07 55.07 1 136.42953008817 136.42953008817 136.42953008817 18613.016680078
28	3448210 17 11019 11019 55.07 55.07 1 1 1 1 1
29	3448227 31 11019 11019 55.07 55.07 1 6.6079435848914 6.6079435848914 6.6079435848914 43.664918421108
30	3448258 29 11019 11019 55.07 55.07 1 0.28260889212 0.28260889212 0.28260889212 0.079867785905291
31	3448287 31 11019 11019 55.07 55.07 1 1.9054804994003 1.9054804994003 1.9054804994003 3.6308559335946
41	3448318 17 11019 11019 55.07 55.07 1 1 1 1 1
42	3448335 31 11019 11019 55.07 55.07 1 293.15096750453 293.15096750453 293.15096750453 85937.489748842
43	3448366 31 11019 11019 55.07 55.07 1 43.412971189674 43.412971189674 43.412971189674 1884.6860675155
44	3448397 17 11019 11019 55.07 55.07 1 1 1 1 1
45	3448414 31 11019 11019 55.07 55.07 1 14.152503220086 14.152503220086 14.152503220086 200.29334739455
46	3448445 32 11019 11019 55.07 55.07 1 -1.1721459529451 -1.1721459529451 -1.1721459529451 1.3739261350055
47	3448477 21 11019 11019 55.07 55.07 1 0.973 0.973 0.973 0.946729
57	3448498 17 11019 11019 55.07 55.07 1 1 1 1 1
58	3448515 17 11019 11019 55.07 55.07 1 1 1 1 1
61	3448532 31 11019 11019 55.07 55.07 1 37.134552115214 37.134552115214 37.134552115214 1378.9749607975
62	3448563 31 11019 11019 55.07 55.07 1 179.07800865799 179.07800865799 179.07800865799 32068.933184911
63	3448594 17 11019 11019 55.07 55.07 1 1 1 1 1
64	3448611 31 11019 11019 55.07 55.07 1 13.350885794746 13.350885794746 13.350885794746 178.24615150434
65	3448642 32 11019 11019 55.07 55.07 1 0.55298991286978 0.55298991286978 0.55298991286978 0.30579784373573
66	3448674 31 11019 11019 55.07 55.07 1 3.7531649638032 3.7531649638032 3.7531649638032 14.08624724552
76	3448705 17 11019 11019 55.07 55.07 1 1 1 1 1
0	3448722 30 11020 11020 55.08 55.08 1 70.451199463618 70.451199463618 70.451199463618 4963.3715058625
1	3448752 30 11020 11020 55.08 55.08 1 102.45154253638 102.45154253638 102.45154253638 10496.318568084
2	3448782 16 11020 11020 55.08 55.08 1 0 0 0 0
3	3448798 30 11020 11020 55.08 55.08 1 26.518044255315 26.518044255315 26.518044255315 703.20667112687
4	3448828 32 11020 11020 55.08 55.08 1 -0.01169752049357 -0.01169752049357 -0.01169752049357 0.00013683198569749
5	3448860 30 11020 11020 55.08 55.08 1 4.0371238367452 4.0371238367452 4.0371238367452 16.298368873216
6	3448890 30 11020 11020 55.08 55.08 1 412.31719080141 412.31719080141 412.31719080141 170005.46583036
7	3448920 28 11020 11020 55.08 55.08 1 175.617100714 175.617100714 175.617100714 30841.366063192
8	3448948 16 11020 11020 55.08 55.08 1 1 1 1 1
9	3448964 30 11020 11020 55.08 55.08 1 4.8703100253482 4.8703100253482 4.8703100253482 23.719919743007
10	3448994 31 11020 11020 55.08 55.08 1 2.4496639211034 2.4496639211034 2.4496639211034 6.0008533263559
11	3449025 31 11020 11020 55.08 55.08 1 4.2308957581414 4.2308957581414 4.2308957581414 17.900478916259
26	3449056 31 11020 11020 55.08 55.08 1 396.21315794767 396.21315794767 396.21315794767 156984.86653087
27	3449087 31 11020 11020 55.08 55.08 1 136.48834783899 136.48834783899 136.48834783899 18629.069095818
28	3449118 17 11020 11020 55.08 55.08 1 1 1 1 1
29	3449135 31 11020 11020 55.08 55.08 1 6.6106279272376 6.6106279272376 6.6106279272376 43.700401592373
30	3449166 31 11020 11020 55.08 55.08 1 0.2684342346134 0.2684342346134 0.2684342346134 0.072056938312483
31	3449197 31 11020 11020 55.08 55.08 1 1.8832427998696 1.8832427998696 1.8832427998696 3.5466034432608
41	3449228 17 11020 11020 55.08 55.08 1 1 1 1 1
42	3449245 31 11020 11020 55.08 55.08 1 293.27701901063 293.27701901063 293.27701901063 86011.409879762
43	3449276 31 11020 11020 55.08 55.08 1 43.477195064554 43.477195064554 43.477195064554 1890.2664906813
44	3449307 17 11020 11020 55.08 55.08 1 1 1 1 1
45	3449324 30 11020 11020 55.08 55.08 1 14.14079605657 14.14079605657 14.14079605657 199.96211311352
46	3449354 32 11020 11020 55.08 55.08 1 -1.1707163515901 -1.1707163515901 -1.1707163515901 1.3705767758804
47	3449386 21 11020 11020 55.08 55.08 1 0.973 0.973 0.973 0.946729
57	3449407 17 11020 11020 55.08 55.08 1 1 1 1 1
58	3449424 17 11020 11020 55.08 55.08 1 1 1 1 1
61	3449441 29 11020 11020 55.08 55.08 1 37.1554202078 37.1554202078 37.1554202078 1380.5252508182
62	3449470 31 11020 11020 55.08 55.08 1 178.94627748735 178.94627748735 178.94627748735 32021.770226578
63	3449501 17 11020 11020 55.08 55.08 1 1 1 1 1
64	3449518 31 11020 11020 55.08 55.08 1 13.356456318374 13.356456318374 13.356456318374 178.39492538463
65	3449549 32 11020 11020 55.08 55.08 1 0.55705236281351 0.55705236281351 0.55705236281351 0.31030733491612
66	3449581 31 11020 11020 55.08 55.08 1 3.7675280076663 3.7675280076663 3.7675280076663 14.19426728855
76	3449612 17 11020 11020 55.08 55.08 1 1 1 1 1
0	3449629 30 11021 11021 55.09 55.09 1 70.638599742975 70.638599742975 70.638599742975 4989.8117736482
1	3449659 30 11021 11021 55.09 55.09 1 102.26414225703 102.26414225703 102.26414225703 10457.954791565
2	3449689 16 11021 11021 55.09 55.09 1 0 0 0 0
3	3449705 30 11021 11021 55.09 55.09 1 26.517927356029 26.517927356029 26.517927356029 703.20047125963
4	3449735 33 11021 11021 55.09 55.09 1 -0.011689928644643 -0.011689928644643 -0.011689928644643 0.00013665443171684
5	3449768 30 11021 11021 55.09 55.09 1 4.0371442634792 4.0371442634792 4.0371442634792 16.298533804143
6	3449798 30 11021 11021 55.09 55.09 1 412.32478576422 412.32478576422 412.32478576422 170011.72895551
7	3449828 30 11021 11021 55.09 55.09 1 175.66504440308 175.66504440308 175.66504440308 30858.207825135
8	3449858 16 11021 11021 55.09 55.09 1 1 1 1 1
9	3449874 30 11021 11021 55.09 55.09 1 4.8951151119488 4.8951151119488 4.8951151119488 23.962151959229
10	3449904 31 11021 11021 55.09 55.09 1 2.4805086600584 2.4805086600584 2.4805086600584 6.1529232126248
11	3449935 31 11021 11021 55.09 55.09 1 4.2832886419023 4.2832886419023 4.2832886419023 18.346561589849
26	3449966 31 11021 11021 55.09 55.09 1 396.24313838513 396.24313838513 396.24313838513 157008.6247173
27	3449997 31 11021 11021 55.09 55.09 1 136.54719011943 136.54719011943 136.54719011943 18645.135129511
28	3450028 17 11021 11021 55.09 55.09 1 1 1 1 1
29	3450045 31 11021 11021 55.09 55.09 1 6.5669000217545 6.5669000217545 6.5669000217545 43.124175895719
30	3450076 32 11021 11021 55.09 55.09 1 -4.3727905483098 -4.3727905483098 -4.3727905483098 19.121297179387
31	3450108 21 11021 11021 55.09 55.09 1 0.973 0.973 0.973 0.946729
41	3450129 17 11021 11021 55.09 55.09 1 1 1 1 1
42	3450146 31 11021 11021 55.09 55.09 1 293.40296622455 293.40296622455 293.40296622455 86085.300589366
43	3450177 31 11021 11021 55.09 55.09 1 43.541365802046 43.541365802046 43.541365802046 1895.8505359076
44	3450208 17 11021 11021 55.09 55.09 1 1 1 1 1
45	3450225 31 11021 11021 55.09 55.09 1 14.129103239938 14.129103239938 14.129103239938 199.63155836484
46	3450256 32 11021 11021 55.09 55.09 1 -1.1692816631973 -1.1692816631973 -1.1692816631973 1.3672196078894
47	3450288 21 11021 11021 55.09 55.09 1 0.973 0.973 0.973 0.946729
57	3450309 17 11021 11021 55.09 55.09 1 1 1 1 1
58	3450326 17 11021 11021 55.09 55.09 1 1 1 1 1
61	3450343 31 11021 11021 55.09 55.09 1 37.176296977437 37.176296977437 37.176296977437 1382.0770569546
62	3450374 31 11021 11021 55.09 55.09 1 178.81449154226 178.81449154226 178.81449154226 31974.622385518
63	3450405 17 11021 11021 55.09 55.09 1 1 1 1 1
64	3450422 31 11021 11021 55.09 55.09 1 13.362067492487 13.362067492487 13.362067492487 178.54484767377
65	3450453 32 11021 11021 55.09 55.09 1 0.56111741128326 0.56111741128326 0.56111741128326 0.31485274924523
66	3450485 31 11021 11021 55.09 55.09 1 3.7819200263497 3.7819200263497 3.7819200263497 14.302919085705
76	3450516 17 11021 11021 55.09 55.09 1 1 1 1 1
0	3450533 28 11022 11022 55.1 55.1 1 70.82599919595 70.82599919595 70.82599919595 5016.3221621047
1	3450561 29 11022 11022 55.1 55.1 1 102.07674280405 102.07674280405 102.07674280405 10419.661421484
2	3450590 15 11022 11022 55.1 55.1 1 0 0 0 0
3	3450605 29 11022 11022 55.1 55.1 1 26.517810531216 26.517810531216 26.517810531216 703.19427536945
4	3450634 32 11022 11022 55.1 55.1 1 -0.011682481340003 -0.011682481340003 -0.011682481340003 0.00013648037025952
5	3450666 29 11022 11022 55.1 55.1 1 4.0371637841301 4.0371637841301 4.0371637841301 16.298691419892
6	3450695 29 11022 11022 55.1 55.1 1 412.33241926553 412.33241926553 412.33241926553 170018.02397737
7	3450724 29 11022 11022 55.1 55.1 1 175.71323136887 175.71323136887 175.71323136887 30875.139678091
8	3450753 15 11022 11022 55.1 55.1 1 1 1 1 1
9	3450768 29 11022 11022 55.1 55.1 1 4.8951151119488 4.8951151119488 4.8951151119488 23.962151959229
10	3450797 16 11022 11022 55.1 55.1 1 0 0 0 0
11	3450813 30 11022 11022 55.1 55.1 1 1.3569761639539 1.3569761639539 1.3569761639539 1.8413843095391
26	3450843 30 11022 11022 55.1 55.1 1 396.27302573357 396.27302573357 396.27302573357 157032.31092404
27	3450873 30 11022 11022 55.1 55.1 1 136.60584969503 136.60584969503 136.60584969503 18661.158170901
28	3450903 16 11022 11022 55.1 55.1 1 1 1 1 1
29	3450919 30 11022 11022 55.1 55.1 1 6.5700929348767 6.5700929348767 6.5700929348767 43.166121172917
30	3450949 31 11022 11022 55.1 55.1 1 0.31929131222812 0.31929131222812 0.31929131222812 0.10194694206436
31	3450980 29 11022 11022 55.1 55.1 1 1.958703871263 1.958703871263 1.958703871263 3.8365208553008
41	3451009 16 11022 11022 55.1 55.1 1 1 1 1 1
42	3451025 29 11022 11022 55.1 55.1 1 293.5288092738 293.5288092738 293.5288092738 86159.161873695
43	3451054 30 11022 11022 55.1 55.1 1 43.605483467114 43.605483467114 43.605483467114 1901.4381884008
44	3451084 16 11022 11022 55.1 55.1 1 1 1 1 1
45	3451100 30 11022 11022 55.1 55.1 1 14.117424821106 14.117424821106 14.117424821106 199.30168357959
46	3451130 31 11022 11022 55.1 55.1 1 -1.1678418832158 -1.1678418832158 -1.1678418832158 1.3638546641931
47	3451161 20 11022 11022 55.1 55.1 1 0.973 0.973 0.973 0.946729
57	3451181 16 11022 11022 55.1 55.1 1 1 1 1 1
58	3451197 16 11022 11022 55.1 55.1 1 1 1 1 1
61	3451213 30 11022 11022 55.1 55.1 1 37.197182487657 37.197182487657 37.197182487657 1383.63038502
62	3451243 30 11022 11022 55.1 55.1 1 178.68265042169 178.68265042169 178.68265042169 31927.48956172
63	3451273 16 11022 11022 55.1 55.1 1 1 1 1 1
64	3451289 30 11022 11022 55.1 55.1 1 13.367719342055 13.367719342055 13.367719342055 178.69592040796
65	3451319 31 11022 11022 55.1 55.1 1 0.56518495687836 0.56518495687836 0.56518495687836 0.3194340354816
66	3451350 30 11022 11022 55.1 55.1 1 3.7963408342014 3.7963408342014 3.7963408342014 14.412203729425
76	3451380 16 11022 11022 55.1 55.1 1 1 1 1 1
0	3451396 30 11023 11023 55.11 55.11 1 71.013397823075 71.013397823075 71.013397823075 5042.9026703783
1	3451426 30 11023 11023 55.11 55.11 1 101.88934417692 101.88934417692 101.88934417692 10381.438456804
2	3451456 16 11023 11023 55.11 55.11 1 0 0 0 0
3	3451472 30 11023 11023 55.11 55.11 1 26.517693779429 26.517693779429 26.517693779429 703.18808337957
4	3451502 33 11023 11023 55.11 55.11 1 -0.011675178658876 -0.011675178658876 -0.011675178658876 0.00013630979671668
5	3451535 30 11023 11023 55.11 55.11 1 4.0371823978562 4.0371823978562 4.0371823978562 16.29884171356
6	3451565 30 11023 11023 55.11 55.11 1 412.34007215664 412.34007215664 412.34007215664 170024.33510615
7	3451595 30 11023 11023 55.11 55.11 1 175.76154073403 175.76154073403 175.76154073403 30892.119201202
8	3451625 16 11023 11023 55.11 55.11 1 1 1 1 1
9	3451641 30 11023 11023 55.11 55.11 1 4.9207579673783 4.9207579673783 4.9207579673783 24.213858973517
10	3451671 31 11023 11023 55.11 55.11 1 2.5642855429571 2.5642855429571 2.5642855429571 6.5755603458189
11	3451702 31 11023 11023 55.11 55.11 1 4.3993774301231 4.3993774301231 4.3993774301231 19.354521772676
26	3451733 31 11023 11023 55.11 55.11 1 396.30282114644 396.30282114644 396.30282114644 157055.92604862
27	3451764 30 11023 11023 55.11 55.11 1 136.6643288297 136.6643288297 136.6643288297 18677.138774473
28	3451794 17 11023 11023 55.11 55.11 1 1 1 1 1
29	3451811 31 11023 11023 55.11 55.11 1 6.5731420482707 6.5731420482707 6.5731420482707 43.206196386744
30	3451842 32 11023 11023 55.11 55.11 1 0.30491133939252 0.30491133939252 0.30491133939252 0.092970924890142
31	3451874 31 11023 11023 55.11 55.11 1 1.9363423739723 1.9363423739723 1.9363423739723 3.7494217892408
41	3451905 17 11023 11023 55.11 55.11 1 1 1 1 1
42	3451922 31 11023 11023 55.11 55.11 1 293.65454828633 293.65454828633 293.65454828633 86232.993729249
43	3451953 31 11023 11023 55.11 55.11 1 43.669548124952 43.669548124952 43.669548124952 1907.0294334375
44	3451984 17 11023 11023 55.11 55.11 1 1 1 1 1
45	3452001 30 11023 11023 55.11 55.11 1 14.10576085103 14.10576085103 14.10576085103 198.97248918645
46	3452031 31 11023 11023 55.11 55.11 1 -1.166397007642 -1.166397007642 -1.166397007642 1.3604819794361
47	3452062 21 11023 11023 55.11 55.11 1 0.973 0.973 0.973 0.946729
57	3452083 17 11023 11023 55.11 55.11 1 1 1 1 1
58	3452100 17 11023 11023 55.11 55.11 1 1 1 1 1
61	3452117 31 11023 11023 55.11 55.11 1 37.218076802031 37.218076802031 37.218076802031 1385.1852408418
62	3452148 31 11023 11023 55.11 55.11 1 178.55075372433 178.55075372433 178.55075372433 31880.371655528
63	3452179 17 11023 11023 55.11 55.11 1 1 1 1 1
64	3452196 31 11023 11023 55.11 55.11 1 13.373411891019 13.373411891019 13.373411891019 178.84814560685
65	3452227 32 11023 11023 55.11 55.11 1 0.56925489636335 0.56925489636335 0.56925489636335 0.32405113703364
66	3452259 31 11023 11023 55.11 55.11 1 3.8107902391527 3.8107902391527 3.8107902391527 14.522122246822
76	3452290 17 11023 11023 55.11 55.11 1 1 1 1 1
0	3452307 30 11024 11024 55.12 55.12 1 71.200795624871 71.200795624871 71.200795624871 5069.5532976147
1	3452337 30 11024 11024 55.12 55.12 1 101.70194637513 101.70194637513 101.70194637513 10343.28589649
2	3452367 16 11024 11024 55.12 55.12 1 0 0 0 0
3	3452383 30 11024 11024 55.12 55.12 1 26.517577099222 26.517577099222 26.517577099222 703.18189521319
4	3452413 33 11024 11024 55.12 55.12 1 -0.011668020679778 -0.011668020679778 -0.011668020679778 0.00013614270658373
5	3452446 30 11024 11024 55.12 55.12 1 4.0372001038202 4.0372001038202 4.0372001038202 16.298984678286
6	3452476 30 11024 11024 55.12 55.12 1 412.34774509243 412.34774509243 412.34774509243 170030.66288281
7	3452506 30 11024 11024 55.12 55.12 1 175.80997663249 175.80997663249 175.80997663249 30909.147883516
8	3452536 16 11024 11024 55.12 55.12 1 1 1 1 1
9	3452552 30 11024 11024 55.12 55.12 1 4.9466649071741 4.9466649071741 4.9466649071741 24.469493703868
10	3452582 31 11024 11024 55.12 55.12 1 2.5906939795753 2.5906939795753 2.5906939795753 6.7116952958078
11	3452613 31 11024 11024 55.12 55.12 1 4.4482949687071 4.4482949687071 4.4482949687071 19.787328128625
26	3452644 31 11024 11024 55.12 55.12 1 396.33263071656 396.33263071656 396.33263071656 157079.55417071
27	3452675 31 11024 11024 55.12 55.12 1 136.72283575066 136.72283575066 136.72283575066 18693.133815702
28	3452706 17 11024 11024 55.12 55.12 1 1 1 1 1
29	3452723 31 11024 11024 55.12 55.12 1 6.5295955011329 6.5295955011329 6.5295955011329 42.635617408415
30	3452754 32 11024 11024 55.12 55.12 1 -4.3546547137758 -4.3546547137758 -4.3546547137758 18.96301767621
31	3452786 21 11024 11024 55.12 55.12 1 0.973 0.973 0.973 0.946729
41	3452807 17 11024 11024 55.12 55.12 1 1 1 1 1
42	3452824 31 11024 11024 55.12 55.12 1 293.78018339055 293.78018339055 293.78018339055 86306.796152987
43	3452855 31 11024 11024 55.12 55.12 1 43.733559840986 43.733559840986 43.733559840986 1912.6242563651
44	3452886 17 11024 11024 55.12 55.12 1 1 1 1 1
45	3452903 29 11024 11024 55.12 55.12 1 14.0941113807 14.0941113807 14.0941113807 198.64397561157
46	3452932 32 11024 11024 55.12 55.12 1 -1.1649470330198 -1.1649470330198 -1.1649470330198 1.3571015897417
47	3452964 21 11024 11024 55.12 55.12 1 0.973 0.973 0.973 0.946729
57	3452985 17 11024 11024 55.12 55.12 1 1 1 1 1
58	3453002 17 11024 11024 55.12 55.12 1 1 1 1 1
61	3453019 31 11024 11024 55.12 55.12 1 37.238979984168 37.238979984168 37.238979984168 1386.7416302612
62	3453050 31 11024 11024 55.12 55.12 1 178.41880104865 178.41880104865 178.41880104865 31833.268567639
63	3453081 17 11024 11024 55.12 55.12 1 1 1 1 1
64	3453098 31 11024 11024 55.12 55.12 1 13.379145162266 13.379145162266 13.379145162266 179.00152527299
65	3453129 32 11024 11024 55.12 55.12 1 0.57332712471272 0.57332712471272 0.57332712471272 0.32870399193135
66	3453161 31 11024 11024 55.12 55.12 1 3.8252680428307 3.8252680428307 3.8252680428307 14.632675599502
76	3453192 17 11024 11024 55.12 55.12 1 1 1 1 1
0	3453209 30 11025 11025 55.13 55.13 1 71.388192601849 71.388192601849 71.388192601849 5096.2740429587
1	3453239 30 11025 11025 55.13 55.13 1 101.51454939815 101.51454939815 101.51454939815 10305.20373951
2	3453269 16 11025 11025 55.13 55.13 1 0 0 0 0
3	3453285 30 11025 11025 55.13 55.13 1 26.517460489147 26.517460489147 26.517460489147 703.17571079349
4	3453315 33 11025 11025 55.13 55.13 1 -0.011661007480157 -0.011661007480157 -0.011661007480157 0.00013597909545228
5	3453348 30 11025 11025 55.13 55.13 1 4.0372169011915 4.0372169011915 4.0372169011915 16.299120307267
6	3453378 28 11025 11025 55.13 55.13 1 412.355458324 412.355458324 412.355458324 170037.02400959
7	3453406 30 11025 11025 55.13 55.13 1 175.85866690064 175.85866690064 175.85866690064 30926.27072407
8	3453436 16 11025 11025 55.13 55.13 1 1 1 1 1
9	3453452 30 11025 11025 55.13 55.13 1 4.9466649071741 4.9466649071741 4.9466649071741 24.469493703868
10	3453482 17 11025 11025 55.13 55.13 1 0 0 0 0
11	3453499 31 11025 11025 55.13 55.13 1 1.3598088751549 1.3598088751549 1.3598088751549 1.8490801769501
26	3453530 31 11025 11025 55.13 55.13 1 396.36234843631 396.36234843631 396.36234843631 157103.11125795
27	3453561 31 11025 11025 55.13 55.13 1 136.78116239788 136.78116239788 136.78116239788 18709.086386915
28	3453592 17 11025 11025 55.13 55.13 1 1 1 1 1
29	3453609 31 11025 11025 55.13 55.13 1 6.5331482944683 6.5331482944683 6.5331482944683 42.682026637514
30	3453640 32 11025 11025 55.13 55.13 1 0.35527933353974 0.35527933353974 0.35527933353974 0.12622340484044
31	3453672 31 11025 11025 55.13 55.13 1 2.0103020503819 2.0103020503819 2.0103020503819 4.0413143337695
41	3453703 17 11025 11025 55.13 55.13 1 1 1 1 1
42	3453720 31 11025 11025 55.13 55.13 1 293.90571471533 293.90571471533 293.90571471533 86380.56914233
43	3453751 31 11025 11025 55.13 55.13 1 43.797518680872 43.797518680872 43.797518680872 1918.2226426013
44	3453782 17 11025 11025 55.13 55.13 1 1 1 1 1
45	3453799 31 11025 11025 55.13 55.13 1 14.082476461135 14.082476461135 14.082476461135 198.31614327843
46	3453830 32 11025 11025 55.13 55.13 1 -1.1634919564427 -1.1634919564427 -1.1634919564427 1.3537135327069
47	3453862 21 11025 11025 55.13 55.13 1 0.973 0.973 0.973 0.946729
57	3453883 17 11025 11025 55.13 55.13 1 1 1 1 1
58	3453900 17 11025 11025 55.13 55.13 1 1 1 1 1
61	3453917 31 11025 11025 55.13 55.13 1 37.259892097715 37.259892097715 37.259892097715 1388.2995591333
62	3453948 31 11025 11025 55.13 55.13 1 178.28679199287 178.28679199287 178.28679199287 31786.180199111
63	3453979 17 11025 11025 55.13 55.13 1 1 1 1 1
64	3453996 31 11025 11025 55.13 55.13 1 13.384919177618 13.384919177618 13.384919177618 179.15606139136
65	3454027 32 11025 11025 55.13 55.13 1 0.57740153515784 0.57740153515784 0.57740153515784 0.33339253280263
66	3454059 31 11025 11025 55.13 55.13 1 3.8397740406779 3.8397740406779 3.8397740406779 14.743864683464
76	3454090 17 11025 11025 55.13 55.13 1 1 1 1 1
0	3454107 29 11026 11026 55.14 55.14 1 71.57558875451 71.57558875451 71.57558875451 5123.0649055548
1	3454136 30 11026 11026 55.14 55.14 1 101.32715324549 101.32715324549 101.32715324549 10267.191984835
2	3454166 16 11026 11026 55.14 55.14 1 0 0 0 0
3	3454182 30 11026 11026 55.14 55.14 1 26.517343947756 26.517343947756 26.517343947756 703.16953004359
4	3454212 33 11026 11026 55.14 55.14 1 -0.011654139137462 -0.011654139137462 -0.011654139137462 0.00013581895903534
5	3454245 30 11026 11026 55.14 55.14 1 4.0372327891393 4.0372327891393 4.0372327891393 16.299248593701
6	3454275 30 11026 11026 55.14 55.14 1 412.36319180667 412.36319180667 412.36319180667 170043.40195698
7	3454305 30 11026 11026 55.14 55.14 1 175.90748500519 175.90748500519 175.90748500519 30943.443280852
8	3454335 16 11026 11026 55.14 55.14 1 1 1 1 1
9	3454351 30 11026 11026 55.14 55.14 1 4.9733256382503 4.9733256382503 4.9733256382503 24.733967904078
10	3454381 31 11026 11026 55.14 55.14 1 2.6660731076241 2.6660731076241 2.6660731076241 7.1079458151964
11	3454412 31 11026 11026 55.14 55.14 1 4.5567559491475 4.5567559491475 4.5567559491475 20.764024780091
26	3454443 31 11026 11026 55.14 55.14 1 396.39197544806 396.39197544806 396.39197544806 157126.59819961
27	3454474 31 11026 11026 55.14 55.14 1 136.83931101348 136.83931101348 136.83931101348 18724.997038644
28	3454505 17 11026 11026 55.14 55.14 1 1 1 1 1
29	3454522 31 11026 11026 55.14 55.14 1 6.5365552842269 6.5365552842269 6.5365552842269 42.726554983754
30	3454553 32 11026 11026 55.14 55.14 1 0.34069897585729 0.34069897585729 0.34069897585729 0.11607579215021
31	3454585 31 11026 11026 55.14 55.14 1 1.9878298587077 1.9878298587077 1.9878298587077 3.9514675471698
41	3454616 17 11026 11026 55.14 55.14 1 1 1 1 1
42	3454633 31 11026 11026 55.14 55.14 1 294.03114238998 294.03114238998 294.03114238998 86454.312695159
43	3454664 31 11026 11026 55.14 55.14 1 43.861424710499 43.861424710499 43.861424710499 1923.8245776348
44	3454695 17 11026 11026 55.14 55.14 1 1 1 1 1
45	3454712 30 11026 11026 55.14 55.14 1 14.07085614338 14.07085614338 14.07085614338 197.98899260769
46	3454742 32 11026 11026 55.14 55.14 1 -1.1620317755545 -1.1620317755545 -1.1620317755545 1.3503178473984
47	3454774 21 11026 11026 55.14 55.14 1 0.973 0.973 0.973 0.946729
57	3454795 17 11026 11026 55.14 55.14 1 1 1 1 1
58	3454812 17 11026 11026 55.14 55.14 1 1 1 1 1
61	3454829 31 11026 11026 55.14 55.14 1 37.280813206353 37.280813206353 37.280813206353 1389.859033327
62	3454860 31 11026 11026 55.14 55.14 1 178.15472615501 178.15472615501 178.15472615501 31739.106451366
63	3454891 17 11026 11026 55.14 55.14 1 1 1 1 1
64	3454908 30 11026 11026 55.14 55.14 1 13.39073395781 13.39073395781 13.39073395781 179.31175592885
65	3454938 31 11026 11026 55.14 55.14 1 0.5814780192317 0.5814780192317 0.5814780192317 0.33811668684962
66	3454969 31 11026 11026 55.14 55.14 1 3.8543080220649 3.8543080220649 3.8543080220649 14.855690328954
76	3455000 17 11026 11026 55.14 55.14 1 1 1 1 1
0	3455017 30 11027 11027 55.15 55.15 1 71.762984083344 71.762984083344 71.762984083344 5149.9258845463
1	3455047 30 11027 11027 55.15 55.15 1 101.13975791666 101.13975791666 101.13975791666 10229.25063144
2	3455077 16 11027 11027 55.15 55.15 1 0 0 0 0
3	3455093 30 11027 11027 55.15 55.15 1 26.517227473599 26.517227473599 26.517227473599 703.16335288658
4	3455123 33 11027 11027 55.15 55.15 1 -0.011647415727722 -0.011647415727722 -0.011647415727722 0.0001356622931344
5	3455156 30 11027 11027 55.15 55.15 1 4.0372477668415 4.0372477668415 4.0372477668415 16.299369530867
6	3455186 30 11027 11027 55.15 55.15 1 412.37094612968 412.37094612968 412.37094612968 170049.79721189
7	3455216 30 11027 11027 55.15 55.15 1 175.95643466569 175.95643466569 175.95643466569 30960.666900262
8	3455246 16 11027 11027 55.15 55.15 1 1 1 1 1
9	3455262 29 11027 11027 55.15 55.15 1 5.000212805635 5.000212805635 5.000212805635 25.002128101636
10	3455291 31 11027 11027 55.15 55.15 1 2.6887167384637 2.6887167384637 2.6887167384637 7.229197699695
11	3455322 31 11027 11027 55.15 55.15 1 4.6028006640129 4.6028006640129 4.6028006640129 21.185773952637
26	3455353 31 11027 11027 55.15 55.15 1 396.42161824497 396.42161824497 396.42161824497 157150.09941196
27	3455384 31 11027 11027 55.15 55.15 1 136.89749061045 136.89749061045 136.89749061045 18740.92293544
28	3455415 17 11027 11027 55.15 55.15 1 1 1 1 1
29	3455432 31 11027 11027 55.15 55.15 1 6.4931866725566 6.4931866725566 6.4931866725566 42.161473164666
30	3455463 32 11027 11027 55.15 55.15 1 -4.3368611670299 -4.3368611670299 -4.3368611670299 18.808364782092
31	3455495 21 11027 11027 55.15 55.15 1 0.973 0.973 0.973 0.946729
41	3455516 17 11027 11027 55.15 55.15 1 1 1 1 1
42	3455533 31 11027 11027 55.15 55.15 1 294.15646654428 294.15646654428 294.15646654428 86528.026809818
43	3455564 31 11027 11027 55.15 55.15 1 43.925277995986 43.925277995986 43.925277995986 1929.4300470247
44	3455595 17 11027 11027 55.15 55.15 1 1 1 1 1
45	3455612 31 11027 11027 55.15 55.15 1 14.059250478494 14.059250478494 14.059250478494 197.66252401704
46	3455643 32 11027 11027 55.15 55.15 1 -1.1605664885506 -1.1605664885506 -1.1605664885506 1.3469145743467
47	3455675 21 11027 11027 55.15 55.15 1 0.973 0.973 0.973 0.946729
57	3455696 17 11027 11027 55.15 55.15 1 1 1 1 1
58	3455713 17 11027 11027 55.15 55.15 1 1 1 1 1
61	3455730 31 11027 11027 55.15 55.15 1 37.301743373796 37.301743373796 37.301743373796 1391.4200587245
62	3455761 31 11027 11027 55.15 55.15 1 178.02260313286 178.02260313286 178.02260313286 31692.047226198
63	3455792 17 11027 11027 55.15 55.15 1 1 1 1 1
64	3455809 31 11027 11027 55.15 55.15 1 13.396589522478 13.396589522478 13.396589522478 179.46861083377
65	3455840 32 11027 11027 55.15 55.15 1 0.58555646681366 0.58555646681366 0.58555646681366 0.3428763758273
66	3455872 31 11027 11027 55.15 55.15 1 3.8688697704028 3.8688697704028 3.8688697704028 14.968153300337
76	3455903 17 11027 11027 55.15 55.15 1 1 1 1 1
0	3455920 30 11028 11028 55.16 55.16 1 71.950378588831 71.950378588831 71.950378588831 5176.8569790761
1	3455950 30 11028 11028 55.16 55.16 1 100.95236341117 100.95236341117 100.95236341117 10191.379678301
2	3455980 16 11028 11028 55.16 55.16 1 0 0 0 0
3	3455996 30 11028 11028 55.16 55.16 1 26.517111065225 26.517111065225 26.517111065225 703.1571792455
4	3456026 33 11028 11028 55.16 55.16 1 -0.011640837326965 -0.011640837326965 -0.011640837326965 0.00013550909367286
5	3456059 29 11028 11028 55.16 55.16 1 4.037261833476 4.037261833476 4.037261833476 16.299483112042
6	3456088 30 11028 11028 55.16 55.16 1 412.37874231036 412.37874231036 412.37874231036 170056.22710947
7	3456118 30 11028 11028 55.16 55.16 1 176.00564855542 176.00564855542 176.00564855542 30977.988323413
8	3456148 16 11028 11028 55.16 55.16 1 1 1 1 1
9	3456164 30 11028 11028 55.16 55.16 1 5.0273166755178 5.0273166755178 5.0273166755178 25.27391295594
10	3456194 30 11028 11028 55.16 55.16 1 2.710386988288 2.710386988288 2.710386988288 7.3461976262808
11	3456224 31 11028 11028 55.16 55.16 1 4.6481150761013 4.6481150761013 4.6481150761013 21.604973760681
26	3456255 31 11028 11028 55.16 55.16 1 396.45117040675 396.45117040675 396.45117040675 157173.53051688
27	3456286 31 11028 11028 55.16 55.16 1 136.95549231885 136.95549231885 136.95549231885 18756.806876297
28	3456317 17 11028 11028 55.16 55.16 1 1 1 1 1
29	3456334 31 11028 11028 55.16 55.16 1 6.4970919391992 6.4970919391992 6.4970919391992 42.212203666407
30	3456365 32 11028 11028 55.16 55.16 1 0.39052666425761 0.39052666425761 0.39052666425761 0.15251107549617
31	3456397 31 11028 11028 55.16 55.16 1 2.0602415515639 2.0602415515639 2.0602415515639 4.2445952507903
41	3456428 17 11028 11028 55.16 55.16 1 1 1 1 1
42	3456445 31 11028 11028 55.16 55.16 1 294.28168730845 294.28168730845 294.28168730845 86601.711485111
43	3456476 31 11028 11028 55.16 55.16 1 43.989078603685 43.989078603685 43.989078603685 1935.0390364012
44	3456507 17 11028 11028 55.16 55.16 1 1 1 1 1
45	3456524 31 11028 11028 55.16 55.16 1 14.047659517552 14.047659517552 14.047659517552 197.33673792108
46	3456555 32 11028 11028 55.16 55.16 1 -1.1590960941794 -1.1590960941794 -1.1590960941794 1.3435037555419
47	3456587 21 11028 11028 55.16 55.16 1 0.973 0.973 0.973 0.946729
57	3456608 17 11028 11028 55.16 55.16 1 1 1 1 1
58	3456625 17 11028 11028 55.16 55.16 1 1 1 1 1
61	3456642 31 11028 11028 55.16 55.16 1 37.322682663791 37.322682663791 37.322682663791 1392.982641222
62	3456673 31 11028 11028 55.16 55.16 1 177.89042252401 177.89042252401 177.89042252401 31645.002425771
63	3456704 17 11028 11028 55.16 55.16 1 1 1 1 1
64	3456721 30 11028 11028 55.16 55.16 1 13.40248589014 13.40248589014 13.40248589014 179.6266280354
65	3456751 32 11028 11028 55.16 55.16 1 0.58963676617392 0.58963676617392 0.58963676617392 0.34767151602404
66	3456783 31 11028 11028 55.16 55.16 1 3.8834590632556 3.8834590632556 3.8834590632556 15.081254295982
76	3456814 17 11028 11028 55.16 55.16 1 1 1 1 1
0	3456831 30 11029 11029 55.17 55.17 1 72.137772271442 72.137772271442 72.137772271442 5203.8581882864
1	3456861 30 11029 11029 55.17 55.17 1 100.76496972856 100.76496972856 100.76496972856 10153.579124397
2	3456891 16 11029 11029 55.17 55.17 1 0 0 0 0
3	3456907 30 11029 11029 55.17 55.17 1 26.516994721185 26.516994721185 26.516994721185 703.15100904337
4	3456937 33 11029 11029 55.17 55.17 1 -0.011634404010508 -0.011634404010508 -0.011634404010508 0.00013535935667972
5	3456970 30 11029 11029 55.17 55.17 1 4.0372749882251 4.0372749882251 4.0372749882251 16.299589330548
6	3457000 29 11029 11029 55.17 55.17 1 412.3865806951 412.3865806951 412.3865806951 170062.6919374
7	3457029 30 11029 11029 55.17 55.17 1 176.05512886102 176.05512886102 176.05512886102 30995.40839827
8	3457059 16 11029 11029 55.17 55.17 1 1 1 1 1
9	3457075 30 11029 11029 55.17 55.17 1 5.0273166755178 5.0273166755178 5.0273166755178 25.27391295594
10	3457105 17 11029 11029 55.17 55.17 1 0 0 0 0
11	3457122 31 11029 11029 55.17 55.17 1 1.3642554135996 1.3642554135996 1.3642554135996 1.8611928335358
26	3457153 31 11029 11029 55.17 55.17 1 396.48063306353 396.48063306353 396.48063306353 157196.89239445
27	3457184 31 11029 11029 55.17 55.17 1 137.01331835673 137.01331835673 137.01331835673 18772.649407121
28	3457215 17 11029 11029 55.17 55.17 1 1 1 1 1
29	3457232 31 11029 11029 55.17 55.17 1 6.4539706909108 6.4539706909108 6.4539706909108 41.653737679136
30	3457263 32 11029 11029 55.17 55.17 1 -4.3121248288324 -4.3121248288324 -4.3121248288324 18.594420539433
31	3457295 21 11029 11029 55.17 55.17 1 0.973 0.973 0.973 0.946729
41	3457316 17 11029 11029 55.17 55.17 1 1 1 1 1
42	3457333 31 11029 11029 55.17 55.17 1 294.40680481318 294.40680481318 294.40680481318 86675.366720307
43	3457364 31 11029 11029 55.17 55.17 1 44.052826600178 44.052826600178 44.052826600178 1940.6515314654
44	3457395 17 11029 11029 55.17 55.17 1 1 1 1 1
45	3457412 31 11029 11029 55.17 55.17 1 14.036083311635 14.036083311635 14.036083311635 197.01163473116
46	3457443 32 11029 11029 55.17 55.17 1 -1.1576205917427 -1.1576205917427 -1.1576205917427 1.3400854344267
47	3457475 21 11029 11029 55.17 55.17 1 0.973 0.973 0.973 0.946729
57	3457496 17 11029 11029 55.17 55.17 1 1 1 1 1
58	3457513 17 11029 11029 55.17 55.17 1 1 1 1 1
61	3457530 31 11029 11029 55.17 55.17 1 37.343631140113 37.343631140113 37.343631140113 1394.5467867288
62	3457561 31 11029 11029 55.17 55.17 1 177.75818392589 177.75818392589 177.75818392589 31597.97195263
63	3457592 17 11029 11029 55.17 55.17 1 1 1 1 1
64	3457609 30 11029 11029 55.17 55.17 1 13.40842307818 13.40842307818 13.40842307818 179.78580944347
65	3457639 32 11029 11029 55.17 55.17 1 0.59371880401766 0.59371880401766 0.59371880401766 0.35250201824416
66	3457671 31 11029 11029 55.17 55.17 1 3.8980756724512 3.8980756724512 3.8980756724512 15.194993948156
76	3457702 17 11029 11029 55.17 55.17 1 1 1 1 1
0	3457719 30 11030 11030 55.18 55.18 1 72.325165131636 72.325165131636 72.325165131636 5230.9295113184
1	3457749 30 11030 11030 55.18 55.18 1 100.57757686836 100.57757686836 100.57757686836 10115.848968712
2	3457779 16 11030 11030 55.18 55.18 1 0 0 0 0
3	3457795 30 11030 11030 55.18 55.18 1 26.516878440027 26.516878440027 26.516878440027 703.14484220316
4	3457825 33 11030 11030 55.18 55.18 1 -0.011628115852602 -0.011628115852602 -0.011628115852602 0.00013521307828154
5	3457858 30 11030 11030 55.18 55.18 1 4.0372872302776 4.0372872302776 4.0372872302776 16.299688179762
6	3457888 30 11030 11030 55.18 55.18 1 412.39444026658 412.39444026658 412.39444026658 170069.17436278
7	3457918 30 11030 11030 55.18 55.18 1 176.10474290921 176.10474290921 176.10474290921 31012.880475119
8	3457948 16 11030 11030 55.18 55.18 1 1 1 1 1
9	3457964 30 11030 11030 55.18 55.18 1 5.0550825644695 5.0550825644695 5.0550825644695 25.553859733604
10	3457994 31 11030 11030 55.18 55.18 1 2.7765888951654 2.7765888951654 2.7765888951654 7.7094458927559
11	3458025 31 11030 11030 55.18 55.18 1 4.7484389507046 4.7484389507046 4.7484389507046 22.547672468569
26	3458056 31 11030 11030 55.18 55.18 1 396.51000677633 396.51000677633 396.51000677633 157220.18547376
27	3458087 31 11030 11030 55.18 55.18 1 137.07096982523 137.07096982523 137.07096982523 18788.450768829
28	3458118 17 11030 11030 55.18 55.18 1 1 1 1 1
29	3458135 31 11030 11030 55.18 55.18 1 6.4583645629088 6.4583645629088 6.4583645629088 41.710472827436
30	3458166 32 11030 11030 55.18 55.18 1 0.43938719979737 0.43938719979737 0.43938719979737 0.19306111134577
31	3458198 31 11030 11030 55.18 55.18 1 2.1303278378554 2.1303278378554 2.1303278378554 4.5382966967418
41	3458229 17 11030 11030 55.18 55.18 1 1 1 1 1
42	3458246 30 11030 11030 55.18 55.18 1 294.5318191896 294.5318191896 294.5318191896 86748.992515134
43	3458276 30 11030 11030 55.18 55.18 1 44.11652205228 44.11652205228 44.11652205228 1946.2675179893
44	3458306 17 11030 11030 55.18 55.18 1 1 1 1 1
45	3458323 31 11030 11030 55.18 55.18 1 14.024521911824 14.024521911824 14.024521911824 196.68721485523
46	3458354 32 11030 11030 55.18 55.18 1 -1.1561399810965 -1.1561399810965 -1.1561399810965 1.3366596558899
47	3458386 21 11030 11030 55.18 55.18 1 0.973 0.973 0.973 0.946729
57	3458407 17 11030 11030 55.18 55.18 1 1 1 1 1
58	3458424 17 11030 11030 55.18 55.18 1 1 1 1 1
61	3458441 31 11030 11030 55.18 55.18 1 37.364588866566 37.364588866566 37.364588866566 1396.1125011675
62	3458472 31 11030 11030 55.18 55.18 1 177.62588693572 177.62588693572 177.62588693572 31550.955709701
63	3458503 17 11030 11030 55.18 55.18 1 1 1 1 1
64	3458520 31 11030 11030 55.18 55.18 1 13.414401102835 13.414401102835 13.414401102835 179.94615694775
65	3458551 32 11030 11030 55.18 55.18 1 0.59780246552918 0.59780246552918 0.59780246552918 0.35736778779277
66	3458583 31 11030 11030 55.18 55.18 1 3.9127193641921 3.9127193641921 3.9127193641921 15.309372822924
76	3458614 17 11030 11030 55.18 55.18 1 1 1 1 1
0	3458631 30 11031 11031 55.19 55.19 1 72.512557169862 72.512557169862 72.512557169862 5258.0709473126
1	3458661 30 11031 11031 55.19 55.19 1 100.39018483014 100.39018483014 100.39018483014 10078.189210229
2	3458691 16 11031 11031 55.19 55.19 1 0 0 0 0
3	3458707 30 11031 11031 55.19 55.19 1 26.516762220298 26.516762220298 26.516762220298 703.1386786478
4	3458737 31 11031 11031 55.19 55.19 1 -0.0116219729275 -0.0116219729275 -0.0116219729275 0.00013507025472755
5	3458768 29 11031 11031 55.19 55.19 1 4.037298558822 4.037298558822 4.037298558822 16.299779653067
6	3458797 30 11031 11031 55.19 55.19 1 412.40232154227 412.40232154227 412.40232154227 170075.67481346
7	3458827 30 11031 11031 55.19 55.19 1 176.15449396669 176.15449396669 176.15449396669 31030.40574466
8	3458857 16 11031 11031 55.19 55.19 1 1 1 1 1
9	3458873 30 11031 11031 55.19 55.19 1 5.0830344298425 5.0830344298425 5.0830344298425 25.837239014964
10	3458903 31 11031 11031 55.19 55.19 1 2.7951865372951 2.7951865372951 2.7951865372951 7.8130677782757
11	3458934 31 11031 11031 55.19 55.19 1 4.7914729318112 4.7914729318112 4.7914729318112 22.958212856279
26	3458965 31 11031 11031 55.19 55.19 1 396.53929265334 396.53929265334 396.53929265334 157243.41061801
27	3458996 31 11031 11031 55.19 55.19 1 137.12844889937 137.12844889937 137.12844889937 18804.211497548
28	3459027 17 11031 11031 55.19 55.19 1 1 1 1 1
29	3459044 31 11031 11031 55.19 55.19 1 6.4626072282819 6.4626072282819 6.4626072282819 41.765292187042
30	3459075 32 11031 11031 55.19 55.19 1 0.42426653731296 0.42426653731296 0.42426653731296 0.18000209468353
31	3459107 31 11031 11031 55.19 55.19 1 2.1074805894651 2.1074805894651 2.1074805894651 4.4414744349722
41	3459138 17 11031 11031 55.19 55.19 1 1 1 1 1
42	3459155 30 11031 11031 55.19 55.19 1 294.6567305693 294.6567305693 294.6567305693 86822.588869787
43	3459185 31 11031 11031 55.19 55.19 1 44.180165027038 44.180165027038 44.180165027038 1951.8869818163
44	3459216 17 11031 11031 55.19 55.19 1 1 1 1 1
45	3459233 31 11031 11031 55.19 55.19 1 14.012975369197 14.012975369197 14.012975369197 196.36347869774
46	3459264 32 11031 11031 55.19 55.19 1 -1.1546542626524 -1.1546542626524 -1.1546542626524 1.3332264662614
47	3459296 21 11031 11031 55.19 55.19 1 0.973 0.973 0.973 0.946729
57	3459317 17 11031 11031 55.19 55.19 1 1 1 1 1
58	3459334 17 11031 11031 55.19 55.19 1 1 1 1 1
61	3459351 30 11031 11031 55.19 55.19 1 37.38555590698 37.38555590698 37.38555590698 1397.679790474
62	3459381 31 11031 11031 55.19 55.19 1 177.49353115057 177.49353115057 177.49353115057 31503.9536003
63	3459412 17 11031 11031 55.19 55.19 1 1 1 1 1
64	3459429 31 11031 11031 55.19 55.19 1 13.420419979179 13.420419979179 13.420419979179 180.10767241756
65	3459460 32 11031 11031 55.19 55.19 1 0.60188763441413 0.60188763441413 0.60188763441413 0.36226872446064
66	3459492 31 11031 11031 55.19 55.19 1 3.9273898991608 3.9273898991608 3.9273898991608 15.42439142003
76	3459523 17 11031 11031 55.19 55.19 1 1 1 1 1
0	3459540 29 11032 11032 55.2 55.2 1 72.699948386561 72.699948386561 72.699948386561 5285.2824954086
1	3459569 29 11032 11032 55.2 55.2 1 100.20279361344 100.20279361344 100.20279361344 10040.599847937
2	3459598 15 11032 11032 55.2 55.2 1 0 0 0 0
3	3459613 29 11032 11032 55.2 55.2 1 26.516646060544 26.516646060544 26.516646060544 703.13251830019
4	3459642 32 11032 11032 55.2 55.2 1 -0.011615975308743 -0.011615975308743 -0.011615975308743 0.00013493088237333
5	3459674 29 11032 11032 55.2 55.2 1 4.0373089730516 4.0373089730516 4.0373089730516 16.299863743883
6	3459703 29 11032 11032 55.2 55.2 1 412.41024637179 412.41024637179 412.41024637179 170082.21131244
7	3459732 29 11032 11032 55.2 55.2 1 176.20451996043 176.20451996043 176.20451996043 31048.032854486
8	3459761 15 11032 11032 55.2 55.2 1 1 1 1 1
9	3459776 29 11032 11032 55.2 55.2 1 5.0830344298425 5.0830344298425 5.0830344298425 25.837239014964
10	3459805 16 11032 11032 55.2 55.2 1 0 0 0 0
11	3459821 30 11032 11032 55.2 55.2 1 1.3673378447476 1.3673378447476 1.3673378447476 1.8696127816789
26	3459851 30 11032 11032 55.2 55.2 1 396.56859811848 396.56859811848 396.56859811848 157266.65301366
27	3459881 30 11032 11032 55.2 55.2 1 137.18596641894 137.18596641894 137.18596641894 18819.989382299
28	3459911 16 11032 11032 55.2 55.2 1 1 1 1 1
29	3459927 30 11032 11032 55.2 55.2 1 6.4196537517535 6.4196537517535 6.4196537517535 41.211954292402
30	3459957 31 11032 11032 55.2 55.2 1 -4.2953476528462 -4.2953476528462 -4.2953476528462 18.450011458811
31	3459988 20 11032 11032 55.2 55.2 1 0.973 0.973 0.973 0.946729
41	3460008 16 11032 11032 55.2 55.2 1 1 1 1 1
42	3460024 30 11032 11032 55.2 55.2 1 294.78153908432 294.78153908432 294.78153908432 86896.155784922
43	3460054 30 11032 11032 55.2 55.2 1 44.243755591728 44.243755591728 44.243755591728 1957.5099088605
44	3460084 16 11032 11032 55.2 55.2 1 1 1 1 1
45	3460100 30 11032 11032 55.2 55.2 1 14.001443734824 14.001443734824 14.001443734824 196.04042665943
46	3460130 31 11032 11032 55.2 55.2 1 -1.1531634373783 -1.1531634373783 -1.1531634373783 1.3297859133062
47	3460161 20 11032 11032 55.2 55.2 1 0.973 0.973 0.973 0.946729
57	3460181 16 11032 11032 55.2 55.2 1 1 1 1 1
58	3460197 16 11032 11032 55.2 55.2 1 1 1 1 1
61	3460213 30 11032 11032 55.2 55.2 1 37.406532325211 37.406532325211 37.406532325211 1399.248660597
62	3460243 30 11032 11032 55.2 55.2 1 177.36111616737 177.36111616737 177.36111616737 31456.965528134
63	3460273 16 11032 11032 55.2 55.2 1 1 1 1 1
64	3460289 30 11032 11032 55.2 55.2 1 13.426479721109 13.426479721109 13.426479721109 180.27035770135
65	3460319 31 11032 11032 55.2 55.2 1 0.60597419294321 0.60597419294321 0.60597419294321 0.36720472251318
66	3460350 30 11032 11032 55.2 55.2 1 3.9420870326299 3.9420870326299 3.9420870326299 15.540050172829
76	3460380 16 11032 11032 55.2 55.2 1 1 1 1 1
0	3460396 29 11033 11033 55.21 55.21 1 72.88733878216 72.88733878216 72.88733878216 5312.5641547454
1	3460425 30 11033 11033 55.21 55.21 1 100.01540321784 100.01540321784 100.01540321784 10003.080880827
2	3460455 16 11033 11033 55.21 55.21 1 0 0 0 0
3	3460471 30 11033 11033 55.21 55.21 1 26.516529959314 26.516529959314 26.516529959314 703.12636108318
4	3460501 33 11033 11033 55.21 55.21 1 -0.011610123068451 -0.011610123068451 -0.011610123068451 0.00013479495766457
5	3460534 30 11033 11033 55.21 55.21 1 4.0373184721681 4.0373184721681 4.0373184721681 16.29994044571
6	3460564 29 11033 11033 55.21 55.21 1 412.4181930509 412.4181930509 412.4181930509 170088.76595937
7	3460593 30 11033 11033 55.21 55.21 1 176.25468388115 176.25468388115 176.25468388115 31065.713590045
8	3460623 16 11033 11033 55.21 55.21 1 1 1 1 1
9	3460639 30 11033 11033 55.21 55.21 1 5.1115877213104 5.1115877213104 5.1115877213104 26.128329032651
10	3460669 31 11033 11033 55.21 55.21 1 2.8553291467923 2.8553291467923 2.8553291467923 8.1529045365217
11	3460700 30 11033 11033 55.21 55.21 1 4.886379823562 4.886379823562 4.886379823562 23.876707780114
26	3460730 31 11033 11033 55.21 55.21 1 396.59781578541 396.59781578541 396.59781578541 157289.82748576
27	3460761 31 11033 11033 55.21 55.21 1 137.24331161789 137.24331161789 137.24331161789 18835.726583846
28	3460792 17 11033 11033 55.21 55.21 1 1 1 1 1
29	3460809 30 11033 11033 55.21 55.21 1 6.424379805925 6.424379805925 6.424379805925 41.272655890777
30	3460839 31 11033 11033 55.21 55.21 1 0.4726054171508 0.4726054171508 0.4726054171508 0.22335588032028
31	3460870 31 11033 11033 55.21 55.21 1 2.1761298585443 2.1761298585443 2.1761298585443 4.7355411612481
41	3460901 17 11033 11033 55.21 55.21 1 1 1 1 1
42	3460918 31 11033 11033 55.21 55.21 1 294.90624486718 294.90624486718 294.90624486718 86969.693261659
43	3460949 31 11033 11033 55.21 55.21 1 44.307293813861 44.307293813861 44.307293813861 1963.1362851078
44	3460980 17 11033 11033 55.21 55.21 1 1 1 1 1
45	3460997 31 11033 11033 55.21 55.21 1 13.989927059756 13.989927059756 13.989927059756 195.71805913729
46	3461028 32 11033 11033 55.21 55.21 1 -1.1516675067979 -1.1516675067979 -1.1516675067979 1.326338046214
47	3461060 21 11033 11033 55.21 55.21 1 0.973 0.973 0.973 0.946729
57	3461081 17 11033 11033 55.21 55.21 1 1 1 1 1
58	3461098 17 11033 11033 55.21 55.21 1 1 1 1 1
61	3461115 31 11033 11033 55.21 55.21 1 37.427518185134 37.427518185134 37.427518185134 1400.8191174986
62	3461146 31 11033 11033 55.21 55.21 1 177.22864158286 177.22864158286 177.22864158286 31409.991397307
63	3461177 17 11033 11033 55.21 55.21 1 1 1 1 1
64	3461194 31 11033 11033 55.21 55.21 1 13.432580341329 13.432580341329 13.432580341329 180.43421462625
65	3461225 32 11033 11033 55.21 55.21 1 0.61006202199412 0.61006202199412 0.61006202199412 0.37217567067955
66	3461257 31 11033 11033 55.21 55.21 1 3.9568105145666 3.9568105145666 3.9568105145666 15.656349448184
76	3461288 17 11033 11033 55.21 55.21 1 1 1 1 1
0	3461305 30 11034 11034 55.22 55.22 1 73.074728357079 73.074728357079 73.074728357079 5339.9159244609
1	3461335 30 11034 11034 55.22 55.22 1 99.828013642921 99.828013642921 99.828013642921 9965.6323078912
2	3461365 16 11034 11034 55.22 55.22 1 0 0 0 0
3	3461381 30 11034 11034 55.22 55.22 1 26.516413915151 26.516413915151 26.516413915151 703.12020691961
4	3461411 33 11034 11034 55.22 55.22 1 -0.011604416278743 -0.011604416278743 -0.011604416278743 0.00013466247717036
5	3461444 30 11034 11034 55.22 55.22 1 4.0373270553733 4.0373270553733 4.0373270553733 16.300009752049
6	3461474 30 11034 11034 55.22 55.22 1 412.42616204974 412.42616204974 412.42616204974 170095.33914307
7	3461504 30 11034 11034 55.22 55.22 1 176.30498869656 176.30498869656 176.30498869656 31083.449039294
8	3461534 16 11034 11034 55.22 55.22 1 1 1 1 1
9	3461550 30 11034 11034 55.22 55.22 1 5.1403005292739 5.1403005292739 5.1403005292739 26.422689531253
10	3461580 29 11034 11034 55.22 55.22 1 2.87128079635 2.87128079635 2.87128079635 8.2442534114884
11	3461609 31 11034 11034 55.22 55.22 1 4.9274933827246 4.9274933827246 4.9274933827246 24.280191036795
26	3461640 31 11034 11034 55.22 55.22 1 396.62694675047 396.62694675047 396.62694675047 157312.9348886
27	3461671 31 11034 11034 55.22 55.22 1 137.30048664802 137.30048664802 137.30048664802 18851.423633784
28	3461702 17 11034 11034 55.22 55.22 1 1 1 1 1
29	3461719 31 11034 11034 55.22 55.22 1 6.4289528397867 6.4289528397867 6.4289528397867 41.331434616201
30	3461750 32 11034 11034 55.22 55.22 1 0.45730338616767 0.45730338616767 0.45730338616767 0.20912638700042
31	3461782 31 11034 11034 55.22 55.22 1 2.1532150404696 2.1532150404696 2.1532150404696 4.6363350105046
41	3461813 17 11034 11034 55.22 55.22 1 1 1 1 1
42	3461830 31 11034 11034 55.22 55.22 1 295.03084805081 295.03084805081 295.03084805081 87043.201301581
43	3461861 31 11034 11034 55.22 55.22 1 44.370779761178 44.370779761178 44.370779761178 1968.7660966149
44	3461892 17 11034 11034 55.22 55.22 1 1 1 1 1
[...]
5	3471403 30 11109 11109 55.31 55.31 1 4.0373629584371 4.0373629584371 4.0373629584371 16.30029965816
6	3471433 30 11109 11109 55.31 55.31 1 412.49947611422 412.49947611422 412.49947611422 170155.8177945
7	3471463 30 11109 11109 55.31 55.31 1 176.76778842293 176.76778842293 176.76778842293 31246.851023932
8	3471493 16 11109 11109 55.31 55.31 1 1 1 1 1
9	3471509 30 11109 11109 55.31 55.31 1 5.3184882888067 5.3184882888067 5.3184882888067 28.286317678174
10	3471539 17 11109 11109 55.31 55.31 1 0 0 0 0
11	3471556 31 11109 11109 55.31 55.31 1 1.3804613952655 1.3804613952655 1.3804613952655 1.9056736638184
26	3471587 31 11109 11109 55.31 55.31 1 396.88700050211 396.88700050211 396.88700050211 157519.29116757
27	3471618 31 11109 11109 55.31 55.31 1 137.81089133448 137.81089133448 137.81089133448 18991.841770403
28	3471649 17 11109 11109 55.31 55.31 1 1 1 1 1
29	3471666 31 11109 11109 55.31 55.31 1 6.2857242733228 6.2857242733228 6.2857242733228 39.51032964024
30	3471697 32 11109 11109 55.31 55.31 1 -4.2242133283767 -4.2242133283767 -4.2242133283767 17.843978243635
31	3471729 21 11109 11109 55.31 55.31 1 0.973 0.973 0.973 0.946729
41	3471750 17 11109 11109 55.31 55.31 1 1 1 1 1
42	3471767 31 11109 11109 55.31 55.31 1 296.14768190107 296.14768190107 296.14768190107 87703.449495376
43	3471798 31 11109 11109 55.31 55.31 1 44.939812212115 44.939812212115 44.939812212115 2019.5867216602
44	3471829 17 11109 11109 55.31 55.31 1 1 1 1 1
45	3471846 31 11109 11109 55.31 55.31 1 13.875594280506 13.875594280506 13.875594280506 192.53211663721
46	3471877 32 11109 11109 55.31 55.31 1 -1.1364281432835 -1.1364281432835 -1.1364281432835 1.2914689248467
47	3471909 21 11109 11109 55.31 55.31 1 0.973 0.973 0.973 0.946729
57	3471930 17 11109 11109 55.31 55.31 1 1 1 1 1
58	3471947 17 11109 11109 55.31 55.31 1 1 1 1 1
61	3471964 31 11109 11109 55.31 55.31 1 37.637910142925 37.637910142925 37.637910142925 1416.6122799269
62	3471995 31 11109 11109 55.31 55.31 1 175.90052887782 175.90052887782 175.90052887782 30940.996059495
63	3472026 17 11109 11109 55.31 55.31 1 0 0 0 0
64	3472043 30 11109 11109 55.31 55.31 1 13.49583676712 13.49583676712 13.49583676712 182.13761004475
65	3472073 32 11109 11109 55.31 55.31 1 0.65098307122913 0.65098307122913 0.65098307122913 0.42377895902691
66	3472105 31 11109 11109 55.31 55.31 1 4.1054359056238 4.1054359056238 4.1054359056238 16.854603975185
0	3472136 30 11110 11110 55.32 55.32 1 74.948579053611 74.948579053611 74.948579053611 5617.2895021553
1	3472166 29 11110 11110 55.32 55.32 1 97.95416294639 97.95416294639 97.95416294639 9595.0180385278
2	3472195 16 11110 11110 55.32 55.32 1 0 0 0 0
3	3472211 30 11110 11110 55.32 55.32 1 26.515256291763 26.515256291763 26.515256291763 703.05881621789
4	3472241 33 11110 11110 55.32 55.32 1 -0.011555363572668 -0.011555363572668 -0.011555363572668 0.00013352642729655
5	3472274 29 11110 11110 55.32 55.32 1 4.037362339492 4.037362339492 4.037362339492 16.300294660348
6	3472303 30 11110 11110 55.32 55.32 1 412.50779089555 412.50779089555 412.50779089555 170162.67754953
7	3472333 30 11110 11110 55.32 55.32 1 176.82027601249 176.82027601249 176.82027601249 31265.410009133
8	3472363 16 11110 11110 55.32 55.32 1 1 1 1 1
9	3472379 30 11110 11110 55.32 55.32 1 5.3491664005915 5.3491664005915 5.3491664005915 28.613581181217
10	3472409 30 11110 11110 55.32 55.32 1 3.067811178479 3.067811178479 3.067811178479 9.4114654268009
11	3472439 31 11110 11110 55.32 55.32 1 5.3370492158407 5.3370492158407 5.3370492158407 28.484094332305
26	3472470 31 11110 11110 55.32 55.32 1 396.91560903703 396.91560903703 396.91560903703 157542.00069723
27	3472501 31 11110 11110 55.32 55.32 1 137.86704099661 137.86704099661 137.86704099661 19007.320993161
28	3472532 17 11110 11110 55.32 55.32 1 1 1 1 1
29	3472549 31 11110 11110 55.32 55.32 1 6.2918567875896 6.2918567875896 6.2918567875896 39.587461835538
30	3472580 32 11110 11110 55.32 55.32 1 0.61325142668114 0.61325142668114 0.61325142668114 0.37607731232645
31	3472612 31 11110 11110 55.32 55.32 1 2.3664249037729 2.3664249037729 2.3664249037729 5.5999668251964
41	3472643 17 11110 11110 55.32 55.32 1 1 1 1 1
42	3472660 31 11110 11110 55.32 55.32 1 296.27126650489 296.27126650489 296.27126650489 87776.663356411
43	3472691 31 11110 11110 55.32 55.32 1 45.002779187905 45.002779187905 45.002779187905 2025.2501346353
44	3472722 17 11110 11110 55.32 55.32 1 1 1 1 1
45	3472739 31 11110 11110 55.32 55.32 1 13.864245517361 13.864245517361 13.864245517361 192.21730376566
46	3472770 32 11110 11110 55.32 55.32 1 -1.1348763145017 -1.1348763145017 -1.1348763145017 1.287944249217
47	3472802 21 11110 11110 55.32 55.32 1 0.973 0.973 0.973 0.946729
57	3472823 17 11110 11110 55.32 55.32 1 1 1 1 1
58	3472840 17 11110 11110 55.32 55.32 1 1 1 1 1
61	3472857 31 11110 11110 55.32 55.32 1 37.659004081958 37.659004081958 37.659004081958 1418.2005884449
62	3472888 31 11110 11110 55.32 55.32 1 175.76737203702 175.76737203702 175.76737203702 30894.169072799
63	3472919 17 11110 11110 55.32 55.32 1 0 0 0 0
64	3472936 31 11110 11110 55.32 55.32 1 13.502387533688 13.502387533688 13.502387533688 182.31446910989
65	3472967 31 11110 11110 55.32 55.32 1 0.6550766567873 0.6550766567873 0.6550766567873 0.42912542626763
66	3472998 31 11110 11110 55.32 55.32 1 4.1204313038449 4.1204313038449 4.1204313038449 16.977954129705
0	3473029 30 11111 11111 55.33 55.33 1 75.135959625737 75.135959625737 75.135959625737 5645.4124288805
1	3473059 30 11111 11111 55.33 55.33 1 97.766782374263 97.766782374263 97.766782374263 9558.3437358164
2	3473089 16 11111 11111 55.33 55.33 1 0 0 0 0
3	3473105 29 11111 11111 55.33 55.33 1 26.51514077915 26.51514077915 26.51514077915 703.05269053815
4	3473134 32 11111 11111 55.33 55.33 1 -0.01155126131529 -0.01155126131529 -0.01155126131529 0.00013343163797412
5	3473166 30 11111 11111 55.33 55.33 1 4.0373607961162 4.0373607961162 4.0373607961162 16.300282198016
6	3473196 30 11111 11111 55.33 55.33 1 412.51612965755 412.51612965755 412.51612965755 170169.55722764
7	3473226 30 11111 11111 55.33 55.33 1 176.87291498154 176.87291498154 176.87291498154 31284.028054069
8	3473256 16 11111 11111 55.33 55.33 1 1 1 1 1
9	3473272 30 11111 11111 55.33 55.33 1 5.3799351304929 5.3799351304929 5.3799351304929 28.943702008312
10	3473302 31 11111 11111 55.33 55.33 1 3.0768729901456 3.0768729901456 3.0768729901456 9.4671473974874
11	3473333 31 11111 11111 55.33 55.33 1 5.3732767492065 5.3732767492065 5.3732767492065 28.872103023563
26	3473364 31 11111 11111 55.33 55.33 1 396.94413567336 396.94413567336 396.94413567336 157564.64684547
27	3473395 31 11111 11111 55.33 55.33 1 137.92302991729 137.92302991729 137.92302991729 19022.762181567
28	3473426 17 11111 11111 55.33 55.33 1 1 1 1 1
29	3473443 31 11111 11111 55.33 55.33 1 6.2978279383352 6.2978279383352 6.2978279383352 39.662636740876
30	3473474 32 11111 11111 55.33 55.33 1 0.59711507455775 0.59711507455775 0.59711507455775 0.35654641226411
31	3473506 31 11111 11111 55.33 55.33 1 2.3431696458281 2.3431696458281 2.3431696458281 5.4904439891304
41	3473537 17 11111 11111 55.33 55.33 1 1 1 1 1
42	3473554 31 11111 11111 55.33 55.33 1 296.39475000192 296.39475000192 296.39475000192 87849.8478287
43	3473585 31 11111 11111 55.33 55.33 1 45.065694649277 45.065694649277 45.065694649277 2030.9168342219
44	3473616 17 11111 11111 55.33 55.33 1 1 1 1 1
45	3473633 31 11111 11111 55.33 55.33 1 13.852912322939 13.852912322939 13.852912322939 191.90317982702
46	3473664 32 11111 11111 55.33 55.33 1 -1.1333194422374 -1.1333194422374 -1.1333194422374 1.2844129581532
47	3473696 21 11111 11111 55.33 55.33 1 0.973 0.973 0.973 0.946729
57	3473717 17 11111 11111 55.33 55.33 1 1 1 1 1
58	3473734 17 11111 11111 55.33 55.33 1 1 1 1 1
61	3473751 31 11111 11111 55.33 55.33 1 37.680108230283 37.680108230283 37.680108230283 1419.7905562459
62	3473782 30 11111 11111 55.33 55.33 1 175.6341507494 175.6341507494 175.6341507494 30847.354909464
63	3473812 17 11111 11111 55.33 55.33 1 0 0 0 0
64	3473829 31 11111 11111 55.33 55.33 1 13.508979233584 13.508979233584 13.508979233584 182.49251993341
65	3473860 32 11111 11111 55.33 55.33 1 0.65916998961981 0.65916998961981 0.65916998961981 0.43450507521538
66	3473892 31 11111 11111 55.33 55.33 1 4.1354496733109 4.1354496733109 4.1354496733109 17.101944000487
0	3473923 30 11112 11112 55.34 55.34 1 75.323339381406 75.323339381406 75.323339381406 5673.6054555664
1	3473953 30 11112 11112 55.34 55.34 1 97.579402618594 97.579402618594 97.579402618594 9521.7398154018
2	3473983 16 11112 11112 55.34 55.34 1 0 0 0 0
3	3473999 30 11112 11112 55.34 55.34 1 26.515025306097 26.515025306097 26.515025306097 703.04656698296
4	3474029 33 11112 11112 55.34 55.34 1 -0.011547305323489 -0.011547305323489 -0.011547305323489 0.00013334026023389
5	3474062 30 11112 11112 55.34 55.34 1 4.0373583275594 4.0373583275594 4.0373583275594 16.300262265113
6	3474092 30 11112 11112 55.34 55.34 1 412.52451645172 412.52451645172 412.52451645172 170176.47667372
7	3474122 30 11112 11112 55.34 55.34 1 176.92585715674 176.92585715674 176.92585715674 31302.758930648
8	3474152 16 11112 11112 55.34 55.34 1 1 1 1 1
9	3474168 30 11112 11112 55.34 55.34 1 5.3799351304929 5.3799351304929 5.3799351304929 28.943702008312
10	3474198 17 11112 11112 55.34 55.34 1 0 0 0 0
11	3474215 30 11112 11112 55.34 55.34 1 1.383912870095 1.383912870095 1.383912870095 1.9152148320146
26	3474245 31 11112 11112 55.34 55.34 1 396.97268976147 396.97268976147 396.97268976147 157587.31641645
27	3474276 31 11112 11112 55.34 55.34 1 137.97907271727 137.97907271727 137.97907271727 19038.224507917
28	3474307 17 11112 11112 55.34 55.34 1 1 1 1 1
29	3474324 31 11112 11112 55.34 55.34 1 6.2557336182957 6.2557336182957 6.2557336182957 39.134203103075
30	3474355 32 11112 11112 55.34 55.34 1 -4.2094320039506 -4.2094320039506 -4.2094320039506 17.719317795883
31	3474387 21 11112 11112 55.34 55.34 1 0.973 0.973 0.973 0.946729
41	3474408 17 11112 11112 55.34 55.34 1 1 1 1 1
42	3474425 31 11112 11112 55.34 55.34 1 296.51813253054 296.51813253054 296.51813253054 87923.0029194
43	3474456 30 11112 11112 55.34 55.34 1 45.12855866674 45.12855866674 45.12855866674 2036.5868073374
44	3474486 17 11112 11112 55.34 55.34 1 1 1 1 1
45	3474503 31 11112 11112 55.34 55.34 1 13.841594747586 13.841594747586 13.841594747586 191.5897451564
46	3474534 32 11112 11112 55.34 55.34 1 -1.1317575352718 -1.1317575352718 -1.1317575352718 1.2808751186446
47	3474566 21 11112 11112 55.34 55.34 1 0.973 0.973 0.973 0.946729
57	3474587 17 11112 11112 55.34 55.34 1 1 1 1 1
58	3474604 17 11112 11112 55.34 55.34 1 1 1 1 1
61	3474621 31 11112 11112 55.34 55.34 1 37.701222651898 37.701222651898 37.701222651898 1421.382189448
62	3474652 31 11112 11112 55.34 55.34 1 175.50086461099 175.50086461099 175.50086461099 30800.553479206
63	3474683 17 11112 11112 55.34 55.34 1 0 0 0 0
64	3474700 31 11112 11112 55.34 55.34 1 13.515611862946 13.515611862946 13.515611862946 182.6717640298
65	3474731 32 11112 11112 55.34 55.34 1 0.66326293616399 0.66326293616399 0.66326293616399 0.43991772248888
66	3474763 31 11112 11112 55.34 55.34 1 4.1504907041287 4.1504907041287 4.1504907041287 17.226573085059
0	3474794 28 11113 11113 55.35 55.35 1 75.5107183209 75.5107183209 75.5107183209 5701.8685813382
1	3474822 28 11113 11113 55.35 55.35 1 97.3920236791 97.3920236791 97.3920236791 9485.2062763105
2	3474850 16 11113 11113 55.35 55.35 1 0 0 0 0
3	3474866 29 11113 11113 55.35 55.35 1 26.51490987114 26.51490987114 26.51490987114 703.04044547469
4	3474895 33 11113 11113 55.35 55.35 1 -0.011543495661215 -0.011543495661215 -0.011543495661215 0.00013325229208049
5	3474928 30 11113 11113 55.35 55.35 1 4.0373549330736 4.0373549330736 4.0373549330736 16.300234855614
6	3474958 30 11113 11113 55.35 55.35 1 412.53292729739 412.53292729739 412.53292729739 170183.41610455
7	3474988 30 11113 11113 55.35 55.35 1 176.97895115858 176.97895115858 176.97895115858 31321.549153192
8	3475018 16 11113 11113 55.35 55.35 1 1 1 1 1
9	3475034 30 11113 11113 55.35 55.35 1 5.4111088118859 5.4111088118859 5.4111088118859 29.28009857407
10	3475064 31 11113 11113 55.35 55.35 1 3.1173681392984 3.1173681392984 3.1173681392984 9.7179841159126
11	3475095 31 11113 11113 55.35 55.35 1 5.4509569837807 5.4509569837807 5.4509569837807 29.712932039027
26	3475126 31 11113 11113 55.35 55.35 1 397.00116192027 397.00116192027 397.00116192027 157609.92256604
27	3475157 31 11113 11113 55.35 55.35 1 138.03495471548 138.03495471548 138.03495471548 19053.648723304
28	3475188 17 11113 11113 55.35 55.35 1 1 1 1 1
29	3475205 31 11113 11113 55.35 55.35 1 6.2621584111392 6.2621584111392 6.2621584111392 39.214627966201
30	3475236 32 11113 11113 55.35 55.35 1 0.64247928434904 0.64247928434904 0.64247928434904 0.41277963081765
31	3475268 31 11113 11113 55.35 55.35 1 2.4043888383016 2.4043888383016 2.4043888383016 5.7810856857496
41	3475299 17 11113 11113 55.35 55.35 1 1 1 1 1
42	3475316 31 11113 11113 55.35 55.35 1 296.64141422959 296.64141422959 296.64141422959 87996.12863613
43	3475347 31 11113 11113 55.35 55.35 1 45.191371311028 45.191371311028 45.191371311028 2042.2600409712
44	3475378 17 11113 11113 55.35 55.35 1 1 1 1 1
45	3475395 31 11113 11113 55.35 55.35 1 13.830292841556 13.830292841556 13.830292841556 191.27700008321
46	3475426 32 11113 11113 55.35 55.35 1 -1.1301906029434 -1.1301906029434 -1.1301906029434 1.2773307989816
47	3475458 21 11113 11113 55.35 55.35 1 0.973 0.973 0.973 0.946729
57	3475479 17 11113 11113 55.35 55.35 1 1 1 1 1
58	3475496 17 11113 11113 55.35 55.35 1 1 1 1 1
61	3475513 31 11113 11113 55.35 55.35 1 37.722347410793 37.722347410793 37.722347410793 1422.9754941806
62	3475544 31 11113 11113 55.35 55.35 1 175.36751321784 175.36751321784 175.36751321784 30753.76469221
63	3475575 17 11113 11113 55.35 55.35 1 0 0 0 0
64	3475592 31 11113 11113 55.35 55.35 1 13.522285416566 13.522285416566 13.522285416566 182.85220288707
65	3475623 32 11113 11113 55.35 55.35 1 0.66735536201303 0.66735536201303 0.66735536201303 0.44536317920755
66	3475655 30 11113 11113 55.35 55.35 1 4.165554082459 4.165554082459 4.165554082459 17.351840813891
0	3475685 30 11114 11114 55.36 55.36 1 75.698096444494 75.698096444494 75.698096444494 5730.2018053199
1	3475715 30 11114 11114 55.36 55.36 1 97.204645555506 97.204645555506 97.204645555506 9448.7431175716
2	3475745 16 11114 11114 55.36 55.36 1 0 0 0 0
3	3475761 30 11114 11114 55.36 55.36 1 26.514794472816 26.514794472816 26.514794472816 703.03432593569
4	3475791 32 11114 11114 55.36 55.36 1 -0.01153983239206 -0.01153983239206 -0.01153983239206 0.00013316773163684
5	3475823 30 11114 11114 55.36 55.36 1 4.0373506119127 4.0373506119127 4.0373506119127 16.300199963512
6	3475853 29 11114 11114 55.36 55.36 1 412.5413625111 412.5413625111 412.5413625111 170190.37578252
7	3475882 30 11114 11114 55.36 55.36 1 177.03219898528 177.03219898528 177.03219898528 31340.399477564
8	3475912 16 11114 11114 55.36 55.36 1 1 1 1 1
9	3475928 30 11114 11114 55.36 55.36 1 5.4423588448456 5.4423588448456 5.4423588448456 29.619269796069
10	3475958 31 11114 11114 55.36 55.36 1 3.1250032959661 3.1250032959661 3.1250032959661 9.7656455997988
11	3475989 31 11114 11114 55.36 55.36 1 5.4862115736139 5.4862115736139 5.4862115736139 30.098517430455
26	3476020 31 11114 11114 55.36 55.36 1 397.02955317864 397.02955317864 397.02955317864 157632.46609723
27	3476051 30 11114 11114 55.36 55.36 1 138.0906779313 138.0906779313 138.0906779313 19069.035331526
28	3476081 17 11114 11114 55.36 55.36 1 1 1 1 1
29	3476098 31 11114 11114 55.36 55.36 1 6.2684202608841 6.2684202608841 6.2684202608841 39.293092567063
30	3476129 32 11114 11114 55.36 55.36 1 0.62618497449387 0.62618497449387 0.62618497449387 0.39210762228189
31	3476161 30 11114 11114 55.36 55.36 1 2.381112960537 2.381112960537 2.381112960537 5.6696989308373
41	3476191 17 11114 11114 55.36 55.36 1 1 1 1 1
42	3476208 31 11114 11114 55.36 55.36 1 296.76459523834 296.76459523834 296.76459523834 88069.224986976
43	3476239 31 11114 11114 55.36 55.36 1 45.254132653105 45.254132653105 45.254132653105 2047.9365221848
44	3476270 17 11114 11114 55.36 55.36 1 1 1 1 1
45	3476287 31 11114 11114 55.36 55.36 1 13.819006655005 13.819006655005 13.819006655005 190.96494493107
46	3476318 32 11114 11114 55.36 55.36 1 -1.1286186551468 -1.1286186551468 -1.1286186551468 1.2737800687453
47	3476350 21 11114 11114 55.36 55.36 1 0.973 0.973 0.973 0.946729
57	3476371 17 11114 11114 55.36 55.36 1 1 1 1 1
58	3476388 17 11114 11114 55.36 55.36 1 1 1 1 1
61	3476405 31 11114 11114 55.36 55.36 1 37.743482570952 37.743482570952 37.743482570952 1424.5704765837
62	3476436 31 11114 11114 55.36 55.36 1 175.23409616604 175.23409616604 175.23409616604 30706.98845913
63	3476467 17 11114 11114 55.36 55.36 1 0 0 0 0
64	3476484 31 11114 11114 55.36 55.36 1 13.528999887885 13.528999887885 13.528999887885 183.03383796641
65	3476515 31 11114 11114 55.36 55.36 1 0.6714471319528 0.6714471319528 0.6714471319528 0.45084125100764
66	3476546 31 11114 11114 55.36 55.36 1 4.1806394906064 4.1806394906064 4.1806394906064 17.477746550418
0	3476577 30 11115 11115 55.37 55.37 1 75.885473752452 75.885473752452 75.885473752452 5758.6051266342
1	3476607 30 11115 11115 55.37 55.37 1 97.017268247548 97.017268247548 97.017268247548 9412.3503382166
2	3476637 16 11115 11115 55.37 55.37 1 0 0 0 0
3	3476653 30 11115 11115 55.37 55.37 1 26.514679109661 26.514679109661 26.514679109661 703.02820828827
4	3476683 33 11115 11115 55.37 55.37 1 -0.011536315577843 -0.011536315577843 -0.011536315577843 0.00013308657711157
5	3476716 29 11115 11115 55.37 55.37 1 4.037345363342 4.037345363342 4.037345363342 16.300157582899
6	3476745 29 11115 11115 55.37 55.37 1 412.5498465206 412.5498465206 412.5498465206 170197.37586417
7	3476774 30 11115 11115 55.37 55.37 1 177.08575483844 177.08575483844 177.08575483844 31359.364566701
8	3476804 16 11115 11115 55.37 55.37 1 1 1 1 1
9	3476820 30 11115 11115 55.37 55.37 1 5.4736817060388 5.4736817060388 5.4736817060388 29.961191419024
10	3476850 31 11115 11115 55.37 55.37 1 3.1322861193252 3.1322861193252 3.1322861193252 9.8112163333174
11	3476881 30 11115 11115 55.37 55.37 1 5.521178431697 5.521178431697 5.521178431697 30.483411274636
26	3476911 31 11115 11115 55.37 55.37 1 397.05797321101 397.05797321101 397.05797321101 157655.03409043
27	3476942 31 11115 11115 55.37 55.37 1 138.14645762153 138.14645762153 138.14645762153 19084.443753376
28	3476973 17 11115 11115 55.37 55.37 1 1 1 1 1
29	3476990 30 11115 11115 55.37 55.37 1 6.226470498649 6.226470498649 6.226470498649 38.768934870546
30	3477020 32 11115 11115 55.37 55.37 1 -4.1949762235183 -4.1949762235183 -4.1949762235183 17.597825515884
31	3477052 21 11115 11115 55.37 55.37 1 0.973 0.973 0.973 0.946729
41	3477073 17 11115 11115 55.37 55.37 1 1 1 1 1
42	3477090 31 11115 11115 55.37 55.37 1 296.88767569652 296.88767569652 296.88767569652 88142.291980485
43	3477121 31 11115 11115 55.37 55.37 1 45.316842764163 45.316842764163 45.316842764163 2053.6162381118
44	3477152 17 11115 11115 55.37 55.37 1 1 1 1 1
45	3477169 31 11115 11115 55.37 55.37 1 13.807736237982 13.807736237982 13.807736237982 190.65358001767
46	3477200 32 11115 11115 55.37 55.37 1 -1.1270417023336 -1.1270417023336 -1.1270417023336 1.2702229987991
47	3477232 21 11115 11115 55.37 55.37 1 0.973 0.973 0.973 0.946729
57	3477253 17 11115 11115 55.37 55.37 1 1 1 1 1
58	3477270 17 11115 11115 55.37 55.37 1 1 1 1 1
61	3477287 30 11115 11115 55.37 55.37 1 37.76462819635 37.76462819635 37.76462819635 1426.1671428085
62	3477317 31 11115 11115 55.37 55.37 1 175.10061305176 175.10061305176 175.10061305176 30660.224691101
63	3477348 17 11115 11115 55.37 55.37 1 0 0 0 0
64	3477365 31 11115 11115 55.37 55.37 1 13.535755268985 13.535755268985 13.535755268985 183.21667070187
65	3477396 32 11115 11115 55.37 55.37 1 0.67553810999623 0.67553810999623 0.67553810999623 0.45635173805728
66	3477428 31 11115 11115 55.37 55.37 1 4.1957466071035 4.1957466071035 4.1957466071035 17.604289591021

