file 101445936 1604233518                                       
version 2
run Default-0-20201101-12:46:48-40294
attr configname Default
attr datetime 20201101-12:46:48
attr experiment Default
attr inifile omnetpp.ini
attr iterationvars ""
attr iterationvarsf ""
attr measurement ""
attr network Scenario
attr processid 40294
attr repetition 0
attr replication #0
attr resultdir results
attr runnumber 0
attr seedset 0
param *.node[*].appl.runAlgorithm true
param *.playgroundSizeX 2500m
param *.playgroundSizeY 2500m
param *.playgroundSizeZ 50m
param *.annotations.draw true
param *.obstacles.debug false
param *.world.useTorus false
param *.world.use2D false
param *.traciScenarioManager.updateInterval 0.01s
param *.traciScenarioManager.host "\"localhost\""
param *.traciScenarioManager.port 9999
param *.traciScenarioManager.autoShutdown true
param *.traciScenarioManager.launchConfig "xmldoc(\"circle.launchd.xml\")"
param *.traciScenarioManager.configFile "\"circle.sumo.cfg\""
param *.traciScenarioManager.moduleType "\"smart_car=org.car2x.veins.nodes.Car normal_car=0 human_car=0\""
param *.traciScenarioManager.moduleName "\"smart_car=node normal_car=0 human_car=0\""
param *.traciScenarioManager.moduleDisplayString "\"\""
param *.connectionManager.sendDirect true
param *.connectionManager.maxInterfDist 2600m
param *.connectionManager.drawMaxIntfDist false
param *.**.nic.mac1609_4.useServiceChannel false
param *.**.nic.mac1609_4.txPower 20mW
param *.**.nic.mac1609_4.bitrate 6Mbps
param *.**.nic.phy80211p.minPowerLevel -110dBm
param *.**.nic.phy80211p.useNoiseFloor true
param *.**.nic.phy80211p.noiseFloor -98dBm
param *.**.nic.phy80211p.decider "xmldoc(\"config.xml\")"
param *.**.nic.phy80211p.analogueModels "xmldoc(\"config.xml\")"
param *.**.nic.phy80211p.usePropagationDelay true
param *.**.nic.phy80211p.antenna "xmldoc(\"antenna.xml\", \"/root/Antenna[@id='monopole']\")"
param *.node[*].nic.phy80211p.antennaOffsetY "0 m"
param *.node[*].nic.phy80211p.antennaOffsetZ "1.895 m"
param *.node[*].applType "\"PhantomTrafficAppLayer\""
param *.node[*].appl.headerLength "80 bit"
param *.node[*].appl.sendBeacons true
param *.node[*].appl.dataOnSch false
param *.node[*].appl.beaconInterval 5s
param *.node[*].veinsmobility.x 0
param *.node[*].veinsmobility.y 0
param *.node[*].veinsmobility.z 0
param *.node[*].veinsmobility.setHostSpeed false
param *.trafficManager.stopVehiclesAt 15
param *.trafficManager.stopVehiclesDuration 10
param *.trafficManager.numberOfVehicles 120
param *.trafficManager.percentageOfSmartCars 0.5
param *.trafficManager.percentageOfBrakingCars 0.05

vector 0 Scenario.node[0].veinsmobility posx ETV
vector 1 Scenario.node[0].veinsmobility posy ETV
vector 2 Scenario.node[0].appl stopAcceleration ETV
vector 3 Scenario.node[0].appl driveChange ETV
vector 4 Scenario.node[1].veinsmobility posx ETV
vector 5 Scenario.node[1].veinsmobility posy ETV
vector 6 Scenario.node[1].appl stopAcceleration ETV
vector 7 Scenario.node[1].appl driveChange ETV
vector 8 Scenario.node[2].veinsmobility posx ETV
vector 9 Scenario.node[2].veinsmobility posy ETV
vector 10 Scenario.node[2].appl stopAcceleration ETV
vector 11 Scenario.node[2].appl driveChange ETV
vector 12 Scenario.node[3].veinsmobility posx ETV
vector 13 Scenario.node[3].veinsmobility posy ETV
vector 14 Scenario.node[3].appl stopAcceleration ETV
vector 15 Scenario.node[3].appl driveChange ETV
vector 16 Scenario.node[4].veinsmobility posx ETV
vector 17 Scenario.node[4].veinsmobility posy ETV
vector 18 Scenario.node[4].appl stopAcceleration ETV
vector 19 Scenario.node[4].appl driveChange ETV
vector 20 Scenario.node[5].veinsmobility posx ETV
vector 21 Scenario.node[5].veinsmobility posy ETV
vector 22 Scenario.node[5].appl stopAcceleration ETV
vector 23 Scenario.node[5].appl driveChange ETV
vector 24 Scenario.node[6].veinsmobility posx ETV
vector 25 Scenario.node[6].veinsmobility posy ETV
vector 26 Scenario.node[6].appl stopAcceleration ETV
vector 27 Scenario.node[6].appl driveChange ETV
vector 28 Scenario.node[7].veinsmobility posx ETV
vector 29 Scenario.node[7].veinsmobility posy ETV
vector 30 Scenario.node[7].appl stopAcceleration ETV
vector 31 Scenario.node[7].appl driveChange ETV
vector 32 Scenario.node[8].veinsmobility posx ETV
vector 33 Scenario.node[8].veinsmobility posy ETV
vector 34 Scenario.node[8].appl stopAcceleration ETV
vector 35 Scenario.node[8].appl driveChange ETV
vector 36 Scenario.node[9].veinsmobility posx ETV
vector 37 Scenario.node[9].veinsmobility posy ETV
vector 38 Scenario.node[9].appl stopAcceleration ETV
vector 39 Scenario.node[9].appl driveChange ETV
vector 40 Scenario.node[10].veinsmobility posx ETV
vector 41 Scenario.node[10].veinsmobility posy ETV
vector 42 Scenario.node[10].appl stopAcceleration ETV
vector 43 Scenario.node[10].appl driveChange ETV
vector 44 Scenario.node[11].veinsmobility posx ETV
vector 45 Scenario.node[11].veinsmobility posy ETV
vector 46 Scenario.node[11].appl stopAcceleration ETV
vector 47 Scenario.node[11].appl driveChange ETV
vector 48 Scenario.node[12].veinsmobility posx ETV
vector 49 Scenario.node[12].veinsmobility posy ETV
vector 50 Scenario.node[12].appl stopAcceleration ETV
vector 51 Scenario.node[12].appl driveChange ETV
vector 52 Scenario.node[13].veinsmobility posx ETV
vector 53 Scenario.node[13].veinsmobility posy ETV
vector 54 Scenario.node[13].appl stopAcceleration ETV
vector 55 Scenario.node[13].appl driveChange ETV
vector 56 Scenario.node[14].veinsmobility posx ETV
vector 57 Scenario.node[14].veinsmobility posy ETV
vector 58 Scenario.node[14].appl stopAcceleration ETV
vector 59 Scenario.node[14].appl driveChange ETV
vector 60 Scenario.node[15].veinsmobility posx ETV
vector 61 Scenario.node[15].veinsmobility posy ETV
vector 62 Scenario.node[15].appl stopAcceleration ETV
vector 63 Scenario.node[15].appl driveChange ETV
vector 64 Scenario.node[16].veinsmobility posx ETV
vector 65 Scenario.node[16].veinsmobility posy ETV
vector 66 Scenario.node[16].appl stopAcceleration ETV
vector 67 Scenario.node[16].appl driveChange ETV
vector 68 Scenario.node[17].veinsmobility posx ETV
vector 69 Scenario.node[17].veinsmobility posy ETV
vector 70 Scenario.node[17].appl stopAcceleration ETV
vector 71 Scenario.node[17].appl driveChange ETV
vector 72 Scenario.node[18].veinsmobility posx ETV
vector 73 Scenario.node[18].veinsmobility posy ETV
vector 74 Scenario.node[18].appl stopAcceleration ETV
vector 75 Scenario.node[18].appl driveChange ETV
vector 76 Scenario.node[19].veinsmobility posx ETV
vector 77 Scenario.node[19].veinsmobility posy ETV
vector 78 Scenario.node[19].appl stopAcceleration ETV
vector 79 Scenario.node[19].appl driveChange ETV
vector 80 Scenario.node[20].veinsmobility posx ETV
vector 81 Scenario.node[20].veinsmobility posy ETV
vector 82 Scenario.node[20].appl stopAcceleration ETV
vector 83 Scenario.node[20].appl driveChange ETV
vector 84 Scenario.node[21].veinsmobility posx ETV
vector 85 Scenario.node[21].veinsmobility posy ETV
vector 86 Scenario.node[21].appl stopAcceleration ETV
vector 87 Scenario.node[21].appl driveChange ETV
vector 88 Scenario.node[22].veinsmobility posx ETV
vector 89 Scenario.node[22].veinsmobility posy ETV
vector 90 Scenario.node[22].appl stopAcceleration ETV
vector 91 Scenario.node[22].appl driveChange ETV
vector 92 Scenario.node[23].veinsmobility posx ETV
vector 93 Scenario.node[23].veinsmobility posy ETV
vector 94 Scenario.node[23].appl stopAcceleration ETV
vector 95 Scenario.node[23].appl driveChange ETV
vector 96 Scenario.node[24].veinsmobility posx ETV
vector 97 Scenario.node[24].veinsmobility posy ETV
vector 98 Scenario.node[24].appl stopAcceleration ETV
vector 99 Scenario.node[24].appl driveChange ETV
vector 100 Scenario.node[25].veinsmobility posx ETV
vector 101 Scenario.node[25].veinsmobility posy ETV
vector 102 Scenario.node[25].appl stopAcceleration ETV
vector 103 Scenario.node[25].appl driveChange ETV
vector 104 Scenario.node[26].veinsmobility posx ETV
vector 105 Scenario.node[26].veinsmobility posy ETV
vector 106 Scenario.node[26].appl stopAcceleration ETV
vector 107 Scenario.node[26].appl driveChange ETV
vector 108 Scenario.node[27].veinsmobility posx ETV
vector 109 Scenario.node[27].veinsmobility posy ETV
vector 110 Scenario.node[27].appl stopAcceleration ETV
vector 111 Scenario.node[27].appl driveChange ETV
vector 112 Scenario.node[28].veinsmobility posx ETV
vector 113 Scenario.node[28].veinsmobility posy ETV
vector 114 Scenario.node[28].appl stopAcceleration ETV
vector 115 Scenario.node[28].appl driveChange ETV
vector 116 Scenario.node[29].veinsmobility posx ETV
vector 117 Scenario.node[29].veinsmobility posy ETV
vector 118 Scenario.node[29].appl stopAcceleration ETV
vector 119 Scenario.node[29].appl driveChange ETV
vector 120 Scenario.node[30].veinsmobility posx ETV
vector 121 Scenario.node[30].veinsmobility posy ETV
vector 122 Scenario.node[30].appl stopAcceleration ETV
vector 123 Scenario.node[30].appl driveChange ETV
vector 124 Scenario.node[31].veinsmobility posx ETV
vector 125 Scenario.node[31].veinsmobility posy ETV
vector 126 Scenario.node[31].appl stopAcceleration ETV
vector 127 Scenario.node[31].appl driveChange ETV
vector 128 Scenario.node[32].veinsmobility posx ETV
vector 129 Scenario.node[32].veinsmobility posy ETV
vector 130 Scenario.node[32].appl stopAcceleration ETV
vector 131 Scenario.node[32].appl driveChange ETV
vector 132 Scenario.node[33].veinsmobility posx ETV
vector 133 Scenario.node[33].veinsmobility posy ETV
vector 134 Scenario.node[33].appl stopAcceleration ETV
vector 135 Scenario.node[33].appl driveChange ETV
vector 136 Scenario.node[34].veinsmobility posx ETV
vector 137 Scenario.node[34].veinsmobility posy ETV
vector 138 Scenario.node[34].appl stopAcceleration ETV
vector 139 Scenario.node[34].appl driveChange ETV
vector 140 Scenario.node[35].veinsmobility posx ETV
vector 141 Scenario.node[35].veinsmobility posy ETV
vector 142 Scenario.node[35].appl stopAcceleration ETV
vector 143 Scenario.node[35].appl driveChange ETV
vector 144 Scenario.node[36].veinsmobility posx ETV
vector 145 Scenario.node[36].veinsmobility posy ETV
vector 146 Scenario.node[36].appl stopAcceleration ETV
vector 147 Scenario.node[36].appl driveChange ETV
vector 148 Scenario.node[37].veinsmobility posx ETV
vector 149 Scenario.node[37].veinsmobility posy ETV
vector 150 Scenario.node[37].appl stopAcceleration ETV
vector 151 Scenario.node[37].appl driveChange ETV
vector 152 Scenario.node[38].veinsmobility posx ETV
vector 153 Scenario.node[38].veinsmobility posy ETV
vector 154 Scenario.node[38].appl stopAcceleration ETV
vector 155 Scenario.node[38].appl driveChange ETV
vector 156 Scenario.node[39].veinsmobility posx ETV
vector 157 Scenario.node[39].veinsmobility posy ETV
vector 158 Scenario.node[39].appl stopAcceleration ETV
vector 159 Scenario.node[39].appl driveChange ETV
vector 160 Scenario.node[40].veinsmobility posx ETV
vector 161 Scenario.node[40].veinsmobility posy ETV
vector 162 Scenario.node[40].appl stopAcceleration ETV
vector 163 Scenario.node[40].appl driveChange ETV
vector 164 Scenario.node[41].veinsmobility posx ETV
vector 165 Scenario.node[41].veinsmobility posy ETV
vector 166 Scenario.node[41].appl stopAcceleration ETV
vector 167 Scenario.node[41].appl driveChange ETV
vector 168 Scenario.node[42].veinsmobility posx ETV
vector 169 Scenario.node[42].veinsmobility posy ETV
vector 170 Scenario.node[42].appl stopAcceleration ETV
vector 171 Scenario.node[42].appl driveChange ETV
vector 172 Scenario.node[43].veinsmobility posx ETV
vector 173 Scenario.node[43].veinsmobility posy ETV
vector 174 Scenario.node[43].appl stopAcceleration ETV
vector 175 Scenario.node[43].appl driveChange ETV
vector 176 Scenario.node[44].veinsmobility posx ETV
vector 177 Scenario.node[44].veinsmobility posy ETV
vector 178 Scenario.node[44].appl stopAcceleration ETV
vector 179 Scenario.node[44].appl driveChange ETV
vector 180 Scenario.node[45].veinsmobility posx ETV
vector 181 Scenario.node[45].veinsmobility posy ETV
vector 182 Scenario.node[45].appl stopAcceleration ETV
vector 183 Scenario.node[45].appl driveChange ETV
vector 184 Scenario.node[46].veinsmobility posx ETV
vector 185 Scenario.node[46].veinsmobility posy ETV
vector 186 Scenario.node[46].appl stopAcceleration ETV
vector 187 Scenario.node[46].appl driveChange ETV
vector 188 Scenario.node[47].veinsmobility posx ETV
vector 189 Scenario.node[47].veinsmobility posy ETV
vector 190 Scenario.node[47].appl stopAcceleration ETV
vector 191 Scenario.node[47].appl driveChange ETV
vector 192 Scenario.node[48].veinsmobility posx ETV
vector 193 Scenario.node[48].veinsmobility posy ETV
vector 194 Scenario.node[48].appl stopAcceleration ETV
vector 195 Scenario.node[48].appl driveChange ETV
vector 196 Scenario.node[49].veinsmobility posx ETV
vector 197 Scenario.node[49].veinsmobility posy ETV
vector 198 Scenario.node[49].appl stopAcceleration ETV
vector 199 Scenario.node[49].appl driveChange ETV
vector 200 Scenario.node[50].veinsmobility posx ETV
vector 201 Scenario.node[50].veinsmobility posy ETV
vector 202 Scenario.node[50].appl stopAcceleration ETV
vector 203 Scenario.node[50].appl driveChange ETV
vector 204 Scenario.node[51].veinsmobility posx ETV
vector 205 Scenario.node[51].veinsmobility posy ETV
vector 206 Scenario.node[51].appl stopAcceleration ETV
vector 207 Scenario.node[51].appl driveChange ETV
vector 208 Scenario.node[52].veinsmobility posx ETV
vector 209 Scenario.node[52].veinsmobility posy ETV
vector 210 Scenario.node[52].appl stopAcceleration ETV
vector 211 Scenario.node[52].appl driveChange ETV
vector 212 Scenario.node[53].veinsmobility posx ETV
vector 213 Scenario.node[53].veinsmobility posy ETV
vector 214 Scenario.node[53].appl stopAcceleration ETV
vector 215 Scenario.node[53].appl driveChange ETV
vector 216 Scenario.node[54].veinsmobility posx ETV
vector 217 Scenario.node[54].veinsmobility posy ETV
vector 218 Scenario.node[54].appl stopAcceleration ETV
vector 219 Scenario.node[54].appl driveChange ETV
vector 220 Scenario.node[55].veinsmobility posx ETV
vector 221 Scenario.node[55].veinsmobility posy ETV
vector 222 Scenario.node[55].appl stopAcceleration ETV
vector 223 Scenario.node[55].appl driveChange ETV
vector 224 Scenario.node[56].veinsmobility posx ETV
vector 225 Scenario.node[56].veinsmobility posy ETV
vector 226 Scenario.node[56].appl stopAcceleration ETV
vector 227 Scenario.node[56].appl driveChange ETV
vector 228 Scenario.node[57].veinsmobility posx ETV
vector 229 Scenario.node[57].veinsmobility posy ETV
vector 230 Scenario.node[57].appl stopAcceleration ETV
vector 231 Scenario.node[57].appl driveChange ETV
vector 232 Scenario.node[58].veinsmobility posx ETV
vector 233 Scenario.node[58].veinsmobility posy ETV
vector 234 Scenario.node[58].appl stopAcceleration ETV
vector 235 Scenario.node[58].appl driveChange ETV
vector 236 Scenario.node[59].veinsmobility posx ETV
vector 237 Scenario.node[59].veinsmobility posy ETV
vector 238 Scenario.node[59].appl stopAcceleration ETV
vector 239 Scenario.node[59].appl driveChange ETV
vector 240 Scenario.node[0].veinsmobility speed ETV
vector 241 Scenario.node[1].veinsmobility speed ETV
vector 242 Scenario.node[2].veinsmobility speed ETV
vector 243 Scenario.node[3].veinsmobility speed ETV
vector 244 Scenario.node[4].veinsmobility speed ETV
vector 245 Scenario.node[5].veinsmobility speed ETV
vector 246 Scenario.node[6].veinsmobility speed ETV
vector 247 Scenario.node[7].veinsmobility speed ETV
vector 248 Scenario.node[8].veinsmobility speed ETV
vector 249 Scenario.node[9].veinsmobility speed ETV
vector 250 Scenario.node[10].veinsmobility speed ETV
vector 251 Scenario.node[11].veinsmobility speed ETV
vector 252 Scenario.node[12].veinsmobility speed ETV
vector 253 Scenario.node[13].veinsmobility speed ETV
vector 254 Scenario.node[14].veinsmobility speed ETV
vector 255 Scenario.node[15].veinsmobility speed ETV
vector 256 Scenario.node[16].veinsmobility speed ETV
vector 257 Scenario.node[17].veinsmobility speed ETV
vector 258 Scenario.node[18].veinsmobility speed ETV
vector 259 Scenario.node[19].veinsmobility speed ETV
vector 260 Scenario.node[20].veinsmobility speed ETV
vector 261 Scenario.node[21].veinsmobility speed ETV
vector 262 Scenario.node[22].veinsmobility speed ETV
vector 263 Scenario.node[23].veinsmobility speed ETV
vector 264 Scenario.node[24].veinsmobility speed ETV
vector 265 Scenario.node[25].veinsmobility speed ETV
vector 266 Scenario.node[26].veinsmobility speed ETV
vector 267 Scenario.node[27].veinsmobility speed ETV
vector 268 Scenario.node[28].veinsmobility speed ETV
vector 269 Scenario.node[29].veinsmobility speed ETV
vector 270 Scenario.node[30].veinsmobility speed ETV
vector 271 Scenario.node[31].veinsmobility speed ETV
vector 272 Scenario.node[32].veinsmobility speed ETV
vector 273 Scenario.node[33].veinsmobility speed ETV
vector 274 Scenario.node[34].veinsmobility speed ETV
vector 275 Scenario.node[35].veinsmobility speed ETV
vector 276 Scenario.node[36].veinsmobility speed ETV
vector 277 Scenario.node[37].veinsmobility speed ETV
vector 278 Scenario.node[38].veinsmobility speed ETV
vector 279 Scenario.node[39].veinsmobility speed ETV
vector 280 Scenario.node[40].veinsmobility speed ETV
vector 281 Scenario.node[41].veinsmobility speed ETV
vector 282 Scenario.node[42].veinsmobility speed ETV
vector 283 Scenario.node[43].veinsmobility speed ETV
vector 284 Scenario.node[44].veinsmobility speed ETV
vector 285 Scenario.node[45].veinsmobility speed ETV
vector 286 Scenario.node[46].veinsmobility speed ETV
vector 287 Scenario.node[47].veinsmobility speed ETV
vector 288 Scenario.node[48].veinsmobility speed ETV
vector 289 Scenario.node[49].veinsmobility speed ETV
vector 290 Scenario.node[50].veinsmobility speed ETV
vector 291 Scenario.node[51].veinsmobility speed ETV
vector 292 Scenario.node[52].veinsmobility speed ETV
vector 293 Scenario.node[53].veinsmobility speed ETV
vector 294 Scenario.node[54].veinsmobility speed ETV
vector 295 Scenario.node[55].veinsmobility speed ETV
vector 296 Scenario.node[56].veinsmobility speed ETV
vector 297 Scenario.node[57].veinsmobility speed ETV
vector 298 Scenario.node[58].veinsmobility speed ETV
vector 299 Scenario.node[59].veinsmobility speed ETV
vector 300 Scenario.node[0].veinsmobility acceleration ETV
vector 301 Scenario.node[0].veinsmobility co2emission ETV
vector 302 Scenario.node[1].veinsmobility acceleration ETV
vector 303 Scenario.node[1].veinsmobility co2emission ETV
vector 304 Scenario.node[2].veinsmobility acceleration ETV
vector 305 Scenario.node[2].veinsmobility co2emission ETV
vector 306 Scenario.node[3].veinsmobility acceleration ETV
vector 307 Scenario.node[3].veinsmobility co2emission ETV
vector 308 Scenario.node[4].veinsmobility acceleration ETV
vector 309 Scenario.node[4].veinsmobility co2emission ETV
vector 310 Scenario.node[5].veinsmobility acceleration ETV
vector 311 Scenario.node[5].veinsmobility co2emission ETV
vector 312 Scenario.node[6].veinsmobility acceleration ETV
vector 313 Scenario.node[6].veinsmobility co2emission ETV
vector 314 Scenario.node[7].veinsmobility acceleration ETV
vector 315 Scenario.node[7].veinsmobility co2emission ETV
vector 316 Scenario.node[8].veinsmobility acceleration ETV
vector 317 Scenario.node[8].veinsmobility co2emission ETV
vector 318 Scenario.node[9].veinsmobility acceleration ETV
vector 319 Scenario.node[9].veinsmobility co2emission ETV
vector 320 Scenario.node[10].veinsmobility acceleration ETV
vector 321 Scenario.node[10].veinsmobility co2emission ETV
vector 322 Scenario.node[11].veinsmobility acceleration ETV
vector 323 Scenario.node[11].veinsmobility co2emission ETV
vector 324 Scenario.node[12].veinsmobility acceleration ETV
vector 325 Scenario.node[12].veinsmobility co2emission ETV
vector 326 Scenario.node[13].veinsmobility acceleration ETV
vector 327 Scenario.node[13].veinsmobility co2emission ETV
vector 328 Scenario.node[14].veinsmobility acceleration ETV
vector 329 Scenario.node[14].veinsmobility co2emission ETV
vector 330 Scenario.node[15].veinsmobility acceleration ETV
vector 331 Scenario.node[15].veinsmobility co2emission ETV
vector 332 Scenario.node[16].veinsmobility acceleration ETV
vector 333 Scenario.node[16].veinsmobility co2emission ETV
vector 334 Scenario.node[17].veinsmobility acceleration ETV
vector 335 Scenario.node[17].veinsmobility co2emission ETV
vector 336 Scenario.node[18].veinsmobility acceleration ETV
vector 337 Scenario.node[18].veinsmobility co2emission ETV
vector 338 Scenario.node[19].veinsmobility acceleration ETV
vector 339 Scenario.node[19].veinsmobility co2emission ETV
vector 340 Scenario.node[20].veinsmobility acceleration ETV
vector 341 Scenario.node[20].veinsmobility co2emission ETV
vector 342 Scenario.node[21].veinsmobility acceleration ETV
vector 343 Scenario.node[21].veinsmobility co2emission ETV
vector 344 Scenario.node[22].veinsmobility acceleration ETV
vector 345 Scenario.node[22].veinsmobility co2emission ETV
vector 346 Scenario.node[23].veinsmobility acceleration ETV
vector 347 Scenario.node[23].veinsmobility co2emission ETV
vector 348 Scenario.node[24].veinsmobility acceleration ETV
vector 349 Scenario.node[24].veinsmobility co2emission ETV
vector 350 Scenario.node[25].veinsmobility acceleration ETV
vector 351 Scenario.node[25].veinsmobility co2emission ETV
vector 352 Scenario.node[26].veinsmobility acceleration ETV
vector 353 Scenario.node[26].veinsmobility co2emission ETV
vector 354 Scenario.node[27].veinsmobility acceleration ETV
vector 355 Scenario.node[27].veinsmobility co2emission ETV
vector 356 Scenario.node[28].veinsmobility acceleration ETV
vector 357 Scenario.node[28].veinsmobility co2emission ETV
vector 358 Scenario.node[29].veinsmobility acceleration ETV
vector 359 Scenario.node[29].veinsmobility co2emission ETV
vector 360 Scenario.node[30].veinsmobility acceleration ETV
vector 361 Scenario.node[30].veinsmobility co2emission ETV
vector 362 Scenario.node[31].veinsmobility acceleration ETV
vector 363 Scenario.node[31].veinsmobility co2emission ETV
vector 364 Scenario.node[32].veinsmobility acceleration ETV
vector 365 Scenario.node[32].veinsmobility co2emission ETV
vector 366 Scenario.node[33].veinsmobility acceleration ETV
vector 367 Scenario.node[33].veinsmobility co2emission ETV
vector 368 Scenario.node[34].veinsmobility acceleration ETV
vector 369 Scenario.node[34].veinsmobility co2emission ETV
vector 370 Scenario.node[35].veinsmobility acceleration ETV
vector 371 Scenario.node[35].veinsmobility co2emission ETV
vector 372 Scenario.node[36].veinsmobility acceleration ETV
vector 373 Scenario.node[36].veinsmobility co2emission ETV
vector 374 Scenario.node[37].veinsmobility acceleration ETV
vector 375 Scenario.node[37].veinsmobility co2emission ETV
vector 376 Scenario.node[38].veinsmobility acceleration ETV
vector 377 Scenario.node[38].veinsmobility co2emission ETV
vector 378 Scenario.node[39].veinsmobility acceleration ETV
vector 379 Scenario.node[39].veinsmobility co2emission ETV
vector 380 Scenario.node[40].veinsmobility acceleration ETV
vector 381 Scenario.node[40].veinsmobility co2emission ETV
vector 382 Scenario.node[41].veinsmobility acceleration ETV
vector 383 Scenario.node[41].veinsmobility co2emission ETV
vector 384 Scenario.node[42].veinsmobility acceleration ETV
vector 385 Scenario.node[42].veinsmobility co2emission ETV
vector 386 Scenario.node[43].veinsmobility acceleration ETV
vector 387 Scenario.node[43].veinsmobility co2emission ETV
vector 388 Scenario.node[44].veinsmobility acceleration ETV
vector 389 Scenario.node[44].veinsmobility co2emission ETV
vector 390 Scenario.node[45].veinsmobility acceleration ETV
vector 391 Scenario.node[45].veinsmobility co2emission ETV
vector 392 Scenario.node[46].veinsmobility acceleration ETV
vector 393 Scenario.node[46].veinsmobility co2emission ETV
vector 394 Scenario.node[47].veinsmobility acceleration ETV
vector 395 Scenario.node[47].veinsmobility co2emission ETV
vector 396 Scenario.node[48].veinsmobility acceleration ETV
vector 397 Scenario.node[48].veinsmobility co2emission ETV
vector 398 Scenario.node[49].veinsmobility acceleration ETV
vector 399 Scenario.node[49].veinsmobility co2emission ETV
vector 400 Scenario.node[50].veinsmobility acceleration ETV
vector 401 Scenario.node[50].veinsmobility co2emission ETV
vector 402 Scenario.node[51].veinsmobility acceleration ETV
vector 403 Scenario.node[51].veinsmobility co2emission ETV
vector 404 Scenario.node[52].veinsmobility acceleration ETV
vector 405 Scenario.node[52].veinsmobility co2emission ETV
vector 406 Scenario.node[53].veinsmobility acceleration ETV
vector 407 Scenario.node[53].veinsmobility co2emission ETV
vector 408 Scenario.node[54].veinsmobility acceleration ETV
vector 409 Scenario.node[54].veinsmobility co2emission ETV
vector 410 Scenario.node[55].veinsmobility acceleration ETV
vector 411 Scenario.node[55].veinsmobility co2emission ETV
vector 412 Scenario.node[56].veinsmobility acceleration ETV
vector 413 Scenario.node[56].veinsmobility co2emission ETV
vector 414 Scenario.node[57].veinsmobility acceleration ETV
vector 415 Scenario.node[57].veinsmobility co2emission ETV
vector 416 Scenario.node[58].veinsmobility acceleration ETV
vector 417 Scenario.node[58].veinsmobility co2emission ETV
vector 418 Scenario.node[59].veinsmobility acceleration ETV
vector 419 Scenario.node[59].veinsmobility co2emission ETV
vector 420 Scenario.node[27].appl vehicleCount ETV
vector 421 Scenario.node[27].appl averageSpeed ETV
vector 422 Scenario.node[27].appl aboveThreshold ETV
vector 423 Scenario.node[27].appl beaconSize ETV
vector 424 Scenario.node[27].appl ptmItemsSize ETV
vector 425 Scenario.node[31].appl vehicleCount ETV
vector 426 Scenario.node[31].appl averageSpeed ETV
vector 427 Scenario.node[31].appl aboveThreshold ETV
vector 428 Scenario.node[31].appl beaconSize ETV
vector 429 Scenario.node[31].appl ptmItemsSize ETV
vector 430 Scenario.node[25].appl vehicleCount ETV
vector 431 Scenario.node[25].appl averageSpeed ETV
vector 432 Scenario.node[25].appl aboveThreshold ETV
vector 433 Scenario.node[25].appl beaconSize ETV
vector 434 Scenario.node[25].appl ptmItemsSize ETV
vector 435 Scenario.node[33].appl vehicleCount ETV
vector 436 Scenario.node[33].appl averageSpeed ETV
vector 437 Scenario.node[33].appl aboveThreshold ETV
vector 438 Scenario.node[33].appl beaconSize ETV
vector 439 Scenario.node[33].appl ptmItemsSize ETV
vector 440 Scenario.node[36].appl vehicleCount ETV
vector 441 Scenario.node[36].appl averageSpeed ETV
vector 442 Scenario.node[36].appl aboveThreshold ETV
vector 443 Scenario.node[36].appl beaconSize ETV
vector 444 Scenario.node[36].appl ptmItemsSize ETV
vector 445 Scenario.node[22].appl vehicleCount ETV
vector 446 Scenario.node[22].appl averageSpeed ETV
vector 447 Scenario.node[22].appl aboveThreshold ETV
vector 448 Scenario.node[22].appl beaconSize ETV
vector 449 Scenario.node[22].appl ptmItemsSize ETV
vector 450 Scenario.node[20].appl vehicleCount ETV
vector 451 Scenario.node[20].appl averageSpeed ETV
vector 452 Scenario.node[20].appl aboveThreshold ETV
vector 453 Scenario.node[20].appl beaconSize ETV
vector 454 Scenario.node[20].appl ptmItemsSize ETV
vector 455 Scenario.node[38].appl vehicleCount ETV
vector 456 Scenario.node[38].appl averageSpeed ETV
vector 457 Scenario.node[38].appl aboveThreshold ETV
vector 458 Scenario.node[38].appl beaconSize ETV
vector 459 Scenario.node[38].appl ptmItemsSize ETV
vector 460 Scenario.node[18].appl vehicleCount ETV
vector 461 Scenario.node[18].appl averageSpeed ETV
vector 462 Scenario.node[18].appl aboveThreshold ETV
vector 463 Scenario.node[18].appl beaconSize ETV
vector 464 Scenario.node[18].appl ptmItemsSize ETV
vector 465 Scenario.node[40].appl vehicleCount ETV
vector 466 Scenario.node[40].appl averageSpeed ETV
vector 467 Scenario.node[40].appl aboveThreshold ETV
vector 468 Scenario.node[40].appl beaconSize ETV
vector 469 Scenario.node[40].appl ptmItemsSize ETV
vector 470 Scenario.node[42].appl vehicleCount ETV
vector 471 Scenario.node[42].appl averageSpeed ETV
vector 472 Scenario.node[42].appl aboveThreshold ETV
vector 473 Scenario.node[42].appl beaconSize ETV
vector 474 Scenario.node[42].appl ptmItemsSize ETV
vector 475 Scenario.node[16].appl vehicleCount ETV
vector 476 Scenario.node[16].appl averageSpeed ETV
vector 477 Scenario.node[16].appl aboveThreshold ETV
vector 478 Scenario.node[16].appl beaconSize ETV
vector 479 Scenario.node[16].appl ptmItemsSize ETV
vector 480 Scenario.node[14].appl vehicleCount ETV
vector 481 Scenario.node[14].appl averageSpeed ETV
vector 482 Scenario.node[14].appl aboveThreshold ETV
vector 483 Scenario.node[14].appl beaconSize ETV
vector 484 Scenario.node[14].appl ptmItemsSize ETV
vector 485 Scenario.node[44].appl vehicleCount ETV
vector 486 Scenario.node[44].appl averageSpeed ETV
vector 487 Scenario.node[44].appl aboveThreshold ETV
vector 488 Scenario.node[44].appl beaconSize ETV
vector 489 Scenario.node[44].appl ptmItemsSize ETV
vector 490 Scenario.node[11].appl vehicleCount ETV
vector 491 Scenario.node[11].appl averageSpeed ETV
vector 492 Scenario.node[11].appl aboveThreshold ETV
vector 493 Scenario.node[11].appl beaconSize ETV
vector 494 Scenario.node[11].appl ptmItemsSize ETV
vector 495 Scenario.node[47].appl vehicleCount ETV
vector 496 Scenario.node[47].appl averageSpeed ETV
vector 497 Scenario.node[47].appl aboveThreshold ETV
vector 498 Scenario.node[47].appl beaconSize ETV
vector 499 Scenario.node[47].appl ptmItemsSize ETV
vector 500 Scenario.node[49].appl vehicleCount ETV
vector 501 Scenario.node[49].appl averageSpeed ETV
vector 502 Scenario.node[49].appl aboveThreshold ETV
vector 503 Scenario.node[49].appl beaconSize ETV
vector 504 Scenario.node[49].appl ptmItemsSize ETV
vector 505 Scenario.node[9].appl vehicleCount ETV
vector 506 Scenario.node[9].appl averageSpeed ETV
vector 507 Scenario.node[9].appl aboveThreshold ETV
vector 508 Scenario.node[9].appl beaconSize ETV
vector 509 Scenario.node[9].appl ptmItemsSize ETV
vector 510 Scenario.node[7].appl vehicleCount ETV
vector 511 Scenario.node[7].appl averageSpeed ETV
vector 512 Scenario.node[7].appl aboveThreshold ETV
vector 513 Scenario.node[7].appl beaconSize ETV
vector 514 Scenario.node[7].appl ptmItemsSize ETV
vector 515 Scenario.node[51].appl vehicleCount ETV
vector 516 Scenario.node[51].appl averageSpeed ETV
vector 517 Scenario.node[51].appl aboveThreshold ETV
vector 518 Scenario.node[51].appl beaconSize ETV
vector 519 Scenario.node[51].appl ptmItemsSize ETV
vector 520 Scenario.node[5].appl vehicleCount ETV
vector 521 Scenario.node[5].appl averageSpeed ETV
vector 522 Scenario.node[5].appl aboveThreshold ETV
vector 523 Scenario.node[5].appl beaconSize ETV
vector 524 Scenario.node[5].appl ptmItemsSize ETV
vector 525 Scenario.node[53].appl vehicleCount ETV
vector 526 Scenario.node[53].appl averageSpeed ETV
vector 527 Scenario.node[53].appl aboveThreshold ETV
vector 528 Scenario.node[53].appl beaconSize ETV
vector 529 Scenario.node[53].appl ptmItemsSize ETV
vector 530 Scenario.node[55].appl vehicleCount ETV
vector 531 Scenario.node[55].appl averageSpeed ETV
vector 532 Scenario.node[55].appl aboveThreshold ETV
vector 533 Scenario.node[55].appl beaconSize ETV
vector 534 Scenario.node[55].appl ptmItemsSize ETV
vector 535 Scenario.node[3].appl vehicleCount ETV
vector 536 Scenario.node[3].appl averageSpeed ETV
vector 537 Scenario.node[3].appl aboveThreshold ETV
vector 538 Scenario.node[3].appl beaconSize ETV
vector 539 Scenario.node[3].appl ptmItemsSize ETV
vector 540 Scenario.node[59].appl vehicleCount ETV
vector 541 Scenario.node[59].appl averageSpeed ETV
vector 542 Scenario.node[59].appl aboveThreshold ETV
vector 543 Scenario.node[59].appl beaconSize ETV
vector 544 Scenario.node[59].appl ptmItemsSize ETV
vector 545 Scenario.node[57].appl vehicleCount ETV
vector 546 Scenario.node[57].appl averageSpeed ETV
vector 547 Scenario.node[57].appl aboveThreshold ETV
vector 548 Scenario.node[57].appl beaconSize ETV
vector 549 Scenario.node[57].appl ptmItemsSize ETV
vector 550 Scenario.node[45].appl vehicleCount ETV
vector 551 Scenario.node[45].appl averageSpeed ETV
vector 552 Scenario.node[45].appl aboveThreshold ETV
vector 553 Scenario.node[45].appl beaconSize ETV
vector 554 Scenario.node[45].appl ptmItemsSize ETV
vector 555 Scenario.node[23].appl vehicleCount ETV
vector 556 Scenario.node[23].appl averageSpeed ETV
vector 557 Scenario.node[23].appl aboveThreshold ETV
vector 558 Scenario.node[23].appl beaconSize ETV
vector 559 Scenario.node[23].appl ptmItemsSize ETV
vector 560 Scenario.node[1].appl vehicleCount ETV
vector 561 Scenario.node[1].appl averageSpeed ETV
vector 562 Scenario.node[1].appl aboveThreshold ETV
vector 563 Scenario.node[1].appl beaconSize ETV
vector 564 Scenario.node[1].appl ptmItemsSize ETV
vector 565 Scenario.node[0].appl vehicleCount ETV
vector 566 Scenario.node[0].appl averageSpeed ETV
vector 567 Scenario.node[0].appl aboveThreshold ETV
vector 568 Scenario.node[0].appl beaconSize ETV
vector 569 Scenario.node[0].appl ptmItemsSize ETV
vector 570 Scenario.node[12].appl vehicleCount ETV
vector 571 Scenario.node[12].appl averageSpeed ETV
vector 572 Scenario.node[12].appl aboveThreshold ETV
vector 573 Scenario.node[12].appl beaconSize ETV
vector 574 Scenario.node[12].appl ptmItemsSize ETV
vector 575 Scenario.node[34].appl vehicleCount ETV
vector 576 Scenario.node[34].appl averageSpeed ETV
vector 577 Scenario.node[34].appl aboveThreshold ETV
vector 578 Scenario.node[34].appl beaconSize ETV
vector 579 Scenario.node[34].appl ptmItemsSize ETV
vector 580 Scenario.node[56].appl vehicleCount ETV
vector 581 Scenario.node[56].appl averageSpeed ETV
vector 582 Scenario.node[56].appl aboveThreshold ETV
vector 583 Scenario.node[56].appl beaconSize ETV
vector 584 Scenario.node[56].appl ptmItemsSize ETV
vector 585 Scenario.node[58].appl vehicleCount ETV
vector 586 Scenario.node[58].appl averageSpeed ETV
vector 587 Scenario.node[58].appl aboveThreshold ETV
vector 588 Scenario.node[58].appl beaconSize ETV
vector 589 Scenario.node[58].appl ptmItemsSize ETV
vector 590 Scenario.node[50].appl vehicleCount ETV
vector 591 Scenario.node[50].appl averageSpeed ETV
vector 592 Scenario.node[50].appl aboveThreshold ETV
vector 593 Scenario.node[50].appl beaconSize ETV
vector 594 Scenario.node[50].appl ptmItemsSize ETV
vector 595 Scenario.node[2].appl vehicleCount ETV
vector 596 Scenario.node[2].appl averageSpeed ETV
vector 597 Scenario.node[2].appl aboveThreshold ETV
vector 598 Scenario.node[2].appl beaconSize ETV
vector 599 Scenario.node[2].appl ptmItemsSize ETV
vector 600 Scenario.node[54].appl vehicleCount ETV
vector 601 Scenario.node[54].appl averageSpeed ETV
vector 602 Scenario.node[54].appl aboveThreshold ETV
vector 603 Scenario.node[54].appl beaconSize ETV
vector 604 Scenario.node[54].appl ptmItemsSize ETV
vector 605 Scenario.node[4].appl vehicleCount ETV
vector 606 Scenario.node[4].appl averageSpeed ETV
vector 607 Scenario.node[4].appl aboveThreshold ETV
vector 608 Scenario.node[4].appl beaconSize ETV
vector 609 Scenario.node[4].appl ptmItemsSize ETV
vector 610 Scenario.node[10].appl vehicleCount ETV
vector 611 Scenario.node[10].appl averageSpeed ETV
vector 612 Scenario.node[10].appl aboveThreshold ETV
vector 613 Scenario.node[10].appl beaconSize ETV
vector 614 Scenario.node[10].appl ptmItemsSize ETV
vector 615 Scenario.node[48].appl vehicleCount ETV
vector 616 Scenario.node[48].appl averageSpeed ETV
vector 617 Scenario.node[48].appl aboveThreshold ETV
vector 618 Scenario.node[48].appl beaconSize ETV
vector 619 Scenario.node[48].appl ptmItemsSize ETV
vector 620 Scenario.node[43].appl vehicleCount ETV
vector 621 Scenario.node[43].appl averageSpeed ETV
vector 622 Scenario.node[43].appl aboveThreshold ETV
vector 623 Scenario.node[43].appl beaconSize ETV
vector 624 Scenario.node[43].appl ptmItemsSize ETV
vector 625 Scenario.node[52].appl vehicleCount ETV
vector 626 Scenario.node[52].appl averageSpeed ETV
vector 627 Scenario.node[52].appl aboveThreshold ETV
vector 628 Scenario.node[52].appl beaconSize ETV
vector 629 Scenario.node[52].appl ptmItemsSize ETV
vector 630 Scenario.node[8].appl vehicleCount ETV
vector 631 Scenario.node[8].appl averageSpeed ETV
vector 632 Scenario.node[8].appl aboveThreshold ETV
vector 633 Scenario.node[8].appl beaconSize ETV
vector 634 Scenario.node[8].appl ptmItemsSize ETV
vector 635 Scenario.node[17].appl vehicleCount ETV
vector 636 Scenario.node[17].appl averageSpeed ETV
vector 637 Scenario.node[17].appl aboveThreshold ETV
vector 638 Scenario.node[17].appl beaconSize ETV
vector 639 Scenario.node[17].appl ptmItemsSize ETV
vector 640 Scenario.node[15].appl vehicleCount ETV
vector 641 Scenario.node[15].appl averageSpeed ETV
vector 642 Scenario.node[15].appl aboveThreshold ETV
vector 643 Scenario.node[15].appl beaconSize ETV
vector 644 Scenario.node[15].appl ptmItemsSize ETV
vector 645 Scenario.node[6].appl vehicleCount ETV
vector 646 Scenario.node[6].appl averageSpeed ETV
vector 647 Scenario.node[6].appl aboveThreshold ETV
vector 648 Scenario.node[6].appl beaconSize ETV
vector 649 Scenario.node[6].appl ptmItemsSize ETV
vector 650 Scenario.node[46].appl vehicleCount ETV
vector 651 Scenario.node[46].appl averageSpeed ETV
vector 652 Scenario.node[46].appl aboveThreshold ETV
vector 653 Scenario.node[46].appl beaconSize ETV
vector 654 Scenario.node[46].appl ptmItemsSize ETV
vector 655 Scenario.node[41].appl vehicleCount ETV
vector 656 Scenario.node[41].appl averageSpeed ETV
vector 657 Scenario.node[41].appl aboveThreshold ETV
vector 658 Scenario.node[41].appl beaconSize ETV
vector 659 Scenario.node[41].appl ptmItemsSize ETV
vector 660 Scenario.node[13].appl vehicleCount ETV
vector 661 Scenario.node[13].appl averageSpeed ETV
vector 662 Scenario.node[13].appl aboveThreshold ETV
vector 663 Scenario.node[13].appl beaconSize ETV
vector 664 Scenario.node[13].appl ptmItemsSize ETV
vector 665 Scenario.node[37].appl vehicleCount ETV
vector 666 Scenario.node[37].appl averageSpeed ETV
vector 667 Scenario.node[37].appl aboveThreshold ETV
vector 668 Scenario.node[37].appl beaconSize ETV
vector 669 Scenario.node[37].appl ptmItemsSize ETV
vector 670 Scenario.node[24].appl vehicleCount ETV
vector 671 Scenario.node[24].appl averageSpeed ETV
vector 672 Scenario.node[24].appl aboveThreshold ETV
vector 673 Scenario.node[24].appl beaconSize ETV
vector 674 Scenario.node[24].appl ptmItemsSize ETV
vector 675 Scenario.node[21].appl vehicleCount ETV
vector 676 Scenario.node[21].appl averageSpeed ETV
vector 677 Scenario.node[21].appl aboveThreshold ETV
vector 678 Scenario.node[21].appl beaconSize ETV
vector 679 Scenario.node[21].appl ptmItemsSize ETV
vector 680 Scenario.node[19].appl vehicleCount ETV
vector 681 Scenario.node[19].appl averageSpeed ETV
vector 682 Scenario.node[19].appl aboveThreshold ETV
vector 683 Scenario.node[19].appl beaconSize ETV
vector 684 Scenario.node[19].appl ptmItemsSize ETV
vector 685 Scenario.node[39].appl vehicleCount ETV
vector 686 Scenario.node[39].appl averageSpeed ETV
vector 687 Scenario.node[39].appl aboveThreshold ETV
vector 688 Scenario.node[39].appl beaconSize ETV
vector 689 Scenario.node[39].appl ptmItemsSize ETV
vector 690 Scenario.node[35].appl vehicleCount ETV
vector 691 Scenario.node[35].appl averageSpeed ETV
vector 692 Scenario.node[35].appl aboveThreshold ETV
vector 693 Scenario.node[35].appl beaconSize ETV
vector 694 Scenario.node[35].appl ptmItemsSize ETV
vector 695 Scenario.node[26].appl vehicleCount ETV
vector 696 Scenario.node[26].appl averageSpeed ETV
vector 697 Scenario.node[26].appl aboveThreshold ETV
vector 698 Scenario.node[26].appl beaconSize ETV
vector 699 Scenario.node[26].appl ptmItemsSize ETV
vector 700 Scenario.node[28].appl vehicleCount ETV
vector 701 Scenario.node[28].appl averageSpeed ETV
vector 702 Scenario.node[28].appl aboveThreshold ETV
vector 703 Scenario.node[28].appl beaconSize ETV
vector 704 Scenario.node[28].appl ptmItemsSize ETV
vector 705 Scenario.node[30].appl vehicleCount ETV
vector 706 Scenario.node[30].appl averageSpeed ETV
vector 707 Scenario.node[30].appl aboveThreshold ETV
vector 708 Scenario.node[30].appl beaconSize ETV
vector 709 Scenario.node[30].appl ptmItemsSize ETV
vector 710 Scenario.node[29].appl vehicleCount ETV
vector 711 Scenario.node[29].appl averageSpeed ETV
vector 712 Scenario.node[29].appl aboveThreshold ETV
vector 713 Scenario.node[29].appl beaconSize ETV
vector 714 Scenario.node[29].appl ptmItemsSize ETV
vector 715 Scenario.node[32].appl vehicleCount ETV
vector 716 Scenario.node[32].appl averageSpeed ETV
vector 717 Scenario.node[32].appl aboveThreshold ETV
vector 718 Scenario.node[32].appl beaconSize ETV
vector 719 Scenario.node[32].appl ptmItemsSize ETV
0	40463 28356 2 50032 0.01 11.56 1156 33 186.972472 91890.167805603 9944286.1070148
1	68819 33150 2 50032 0.01 11.56 1156 237.67234042996 479.631657 438574.79464245 172644094.21051
2	101969 17070 2 50032 0.01 11.56 1156 0 0 0 0
3	119039 17070 2 50032 0.01 11.56 1156 0 0 0 0
4	136109 29745 2 50032 0.01 11.56 1156 331.37689586779 481.86 505113.16955835 223222991.67292
5	165854 33131 2 50032 0.01 11.56 1156 54.597449303025 299.80492117866 181569.92462985 34935327.817427
6	198985 17070 2 50032 0.01 11.56 1156 0 0 0 0
7	216055 17070 2 50032 0.01 11.56 1156 0 0 0 0
8	233125 27353 2 50032 0.01 11.56 1156 29.8 128.97969432205 62160.51761253 4430048.9250982
9	260478 33122 2 50032 0.01 11.56 1156 184.03718485186 464.15056096975 385998.98648635 136933236.30679
10	293600 18226 2 50032 0.01 11.56 1156 0 0 0 0
11	311826 18226 2 50032 0.01 11.56 1156 0 0 0 0
12	330052 29512 2 50032 0.01 11.56 1156 389.41340390537 485.06 534072.25995694 247770735.49152
13	359564 34277 2 50032 0.01 11.56 1156 70.092756556487 353.33970233781 234851.51819109 55844494.419473
14	393841 18226 2 50032 0.01 11.56 1156 0 0 0 0
15	412067 18226 2 50032 0.01 11.56 1156 0 0 0 0
16	430293 27538 2 50032 0.01 11.56 1156 33 118.61693251162 61625.250565147 4106597.1671262
17	457831 34289 2 50032 0.01 11.56 1156 171.38810174902 457.4182626626 369545.0141386 126383848.7207
18	492120 18226 2 50032 0.01 11.56 1156 0 0 0 0
19	510346 18226 2 50032 0.01 11.56 1156 0 0 0 0
20	528572 29570 2 50032 0.01 11.56 1156 398.15514075066 481.86 534403.58373771 247827098.57566
21	558142 34266 2 50032 0.01 11.56 1156 79.065128761423 365.90724534542 251400.98508518 62974926.684654
22	592408 18226 2 50032 0.01 11.56 1156 0 0 0 0
23	610634 18226 2 50032 0.01 11.56 1156 0 0 0 0
24	628860 28424 2 50032 0.01 11.56 1156 26.6 108.58065254827 52556.095335805 3127728.2187019
25	657284 34289 2 50032 0.01 11.56 1156 167.50199611249 455.02159542169 365485.0335215 123914969.248
26	691573 18226 2 50032 0.01 11.56 1156 0 0 0 0
27	709799 18226 2 50032 0.01 11.56 1156 0 0 0 0
28	728025 29622 2 50032 0.01 11.56 1156 403.79702615412 478.66 533593.26790152 246874616.43245
29	757647 34288 2 50032 0.01 11.56 1156 92.274160403299 378.58828952845 268015.85316683 70547730.018214
30	791935 18226 2 50032 0.01 11.56 1156 0 0 0 0
31	810161 18226 2 50032 0.01 11.56 1156 0 0 0 0
32	828387 28516 2 50032 0.01 11.56 1156 29.8 102.93530524264 53490.036323276 3017709.444579
33	856903 34270 2 50032 0.01 11.56 1156 154.92183007793 441.80779878583 348886.37640407 113752978.66959
34	891173 18226 2 50032 0.01 11.56 1156 0 0 0 0
35	909399 18226 2 50032 0.01 11.56 1156 0 0 0 0
36	927625 29526 2 50032 0.01 11.56 1156 413.65627277398 485.06 542354.15968603 254964467.07643
37	957151 34282 2 50032 0.01 11.56 1156 94.955622272788 382.45283644004 272123.62075109 72567583.411043
38	991433 18226 2 50032 0.01 11.56 1156 0 0 0 0
39	1009659 18226 2 50032 0.01 11.56 1156 0 0 0 0
40	1027885 27536 2 50032 0.01 11.56 1156 33 97.300992183888 55516.539713262 3073429.8851303
41	1055421 34281 2 50032 0.01 11.56 1156 142.29639476893 428.60918901815 332330.7629582 104048264.68483
42	1089702 18226 2 50032 0.01 11.56 1156 0 0 0 0
43	1107928 18226 2 50032 0.01 11.56 1156 0 0 0 0
44	1126154 29576 2 50032 0.01 11.56 1156 419.29424876406 481.86 540208.66420415 252829454.83845
45	1155730 34267 2 50032 0.01 11.56 1156 108.15927366691 395.00292770974 288679.54561117 80639485.069876
46	1189997 18226 2 50032 0.01 11.56 1156 0 0 0 0
47	1208223 18226 2 50032 0.01 11.56 1156 0 0 0 0
48	1226449 30021 2 50032 0.01 11.56 1156 26.6 173.58578528993 80881.344707919 8052626.7516632
49	1256470 34280 2 50032 0.01 11.56 1156 233.42724700386 482.01086053518 436068.50251628 171078034.90085
50	1290750 18226 2 50032 0.01 11.56 1156 0 0 0 0
51	1308976 18226 2 50032 0.01 11.56 1156 0 0 0 0
52	1327202 28433 2 50032 0.01 11.56 1156 26.6 87.426801903766 47068.988052151 2281656.811866
53	1355635 34269 2 50032 0.01 11.56 1156 138.38741512622 425.90716003273 328135.62524389 101742697.28197
54	1389904 18226 2 50032 0.01 11.56 1156 0 0 0 0
55	1408130 18226 2 50032 0.01 11.56 1156 0 0 0 0
56	1426356 29629 2 50032 0.01 11.56 1156 424.92098947811 478.66 536958.95328998 249749537.53659
57	1455985 34286 2 50032 0.01 11.56 1156 121.34746156039 407.67727005989 305219.39708371 89138949.739717
58	1490271 18226 2 50032 0.01 11.56 1156 0 0 0 0
59	1508497 18226 2 50032 0.01 11.56 1156 0 0 0 0
60	1526723 28523 2 50032 0.01 11.56 1156 29.8 81.796197229239 50428.935249653 2523092.5632102
61	1555246 34295 2 50032 0.01 11.56 1156 125.8525911843 412.71365388034 311625.43786516 92592418.582007
62	1589541 18226 2 50032 0.01 11.56 1156 0 0 0 0
63	1607767 18226 2 50032 0.01 11.56 1156 0 0 0 0
64	1625993 29521 2 50032 0.01 11.56 1156 434.64628884078 485.06 545098.34534718 257349592.52275
65	1655514 34275 2 50032 0.01 11.56 1156 124.07005766175 411.57543089384 309478.45276365 91480572.068835
66	1689789 18226 2 50032 0.01 11.56 1156 0 0 0 0
67	1708015 18226 2 50032 0.01 11.56 1156 0 0 0 0
68	1726241 27552 2 50032 0.01 11.56 1156 33 92.648192260027 54889.371095931 2967478.055315
69	1753793 34265 2 50032 0.01 11.56 1156 113.21454551477 399.53588786106 295122.25584879 83878679.465834
70	1788058 18226 2 50032 0.01 11.56 1156 0 0 0 0
71	1806284 18226 2 50032 0.01 11.56 1156 0 0 0 0
72	1824510 29580 2 50032 0.01 11.56 1156 421.57291731714 481.86 540520.03938894 253097468.64308
73	1854090 34303 2 50032 0.01 11.56 1156 137.2534185724 424.12455270491 325961.05973737 100477369.7396
74	1888393 18226 2 50032 0.01 11.56 1156 0 0 0 0
75	1906619 18226 2 50032 0.01 11.56 1156 0 0 0 0
76	1924845 28435 2 50032 0.01 11.56 1156 26.6 87.598780654866 47069.823719212 2281814.5876259
77	1953280 34264 2 50032 0.01 11.56 1156 109.2761424354 396.79272464377 290791.96305599 81748468.785224
78	1987544 18226 2 50032 0.01 11.56 1156 0 0 0 0
79	2005770 18226 2 50032 0.01 11.56 1156 0 0 0 0
80	2023996 29657 2 50032 0.01 11.56 1156 408.44620154207 478.66 534847.4792723 247946225.37636
81	2053653 34302 2 50032 0.01 11.56 1156 150.42076271749 436.74709357954 342418.06963371 109889274.50628
82	2087955 18226 2 50032 0.01 11.56 1156 0 0 0 0
83	2106181 18226 2 50032 0.01 11.56 1156 0 0 0 0
84	2124407 28507 2 50032 0.01 11.56 1156 29.8 100.63437959237 52845.916444934 2914019.6025537
85	2152914 34281 2 50032 0.01 11.56 1156 96.779007696414 383.61950897486 274373.01346554 73602276.774967
86	2187195 18226 2 50032 0.01 11.56 1156 0 0 0 0
87	2205421 18226 2 50032 0.01 11.56 1156 0 0 0 0
88	2223647 29500 2 50032 0.01 11.56 1156 413.48379991394 485.06 542350.09869864 254960864.81871
89	2253147 34275 2 50032 0.01 11.56 1156 153.18449305071 440.70175531035 346829.85340445 112568353.94643
90	2287422 18226 2 50032 0.01 11.56 1156 0 0 0 0
91	2305648 18226 2 50032 0.01 11.56 1156 0 0 0 0
92	2323874 30415 2 50032 0.01 11.56 1156 341.7764128721 478.66 509056.45155907 226228722.74422
93	2354289 34282 2 50032 0.01 11.56 1156 61.341691584351 315.73903433615 196500.51925505 40290280.395299
94	2388571 18226 2 50032 0.01 11.56 1156 0 0 0 0
95	2406797 18226 2 50032 0.01 11.56 1156 0 0 0 0
96	2425023 27556 2 50032 0.01 11.56 1156 33 113.79139586695 59751.587712774 3789892.0413557
97	2452579 34295 2 50032 0.01 11.56 1156 84.114763600664 370.46258670397 257906.0398635 65871257.89061
98	2486874 18226 2 50032 0.01 11.56 1156 0 0 0 0
99	2505100 18226 2 50032 0.01 11.56 1156 0 0 0 0
100	2523326 30726 2 50032 0.01 11.56 1156 400.4482902752 481.86 535353.3685051 248645361.60605
101	2554052 35446 2 50032 0.01 11.56 1156 166.34756347789 453.19876718184 363228.01117017 122473785.62418
102	2589498 19382 2 50032 0.01 11.56 1156 0 0 0 0
103	2608880 19382 2 50032 0.01 11.56 1156 0 0 0 0
104	2628262 29578 2 50032 0.01 11.56 1156 26.6 108.73285875106 52548.406446972 3126752.7106534
105	2657840 35428 2 50032 0.01 11.56 1156 80.188920369895 367.67828925481 253460.56891852 63931883.364573
106	2693268 19382 2 50032 0.01 11.56 1156 0 0 0 0
107	2712650 19382 2 50032 0.01 11.56 1156 0 0 0 0
108	2732032 30776 2 50032 0.01 11.56 1156 383.4597804381 478.66 527170.00049301 241394238.60746
109	2762808 35437 2 50032 0.01 11.56 1156 179.49406387458 460.5325287051 379531.79585883 132720858.21227
110	2798245 19382 2 50032 0.01 11.56 1156 0 0 0 0
111	2817627 19382 2 50032 0.01 11.56 1156 0 0 0 0
112	2837009 29654 2 50032 0.01 11.56 1156 29.8 125.29130596755 60829.152758281 4209089.1871981
113	2866663 35447 2 50032 0.01 11.56 1156 72.468048861376 354.52536406937 237166.21224455 56779523.442368
114	2902110 19382 2 50032 0.01 11.56 1156 0 0 0 0
115	2921492 19382 2 50032 0.01 11.56 1156 0 0 0 0
116	2940874 30667 2 50032 0.01 11.56 1156 389.14684587268 485.06 534066.65266639 247765815.4803
117	2971541 35439 2 50032 0.01 11.56 1156 182.29892843968 465.41386639141 384102.69398442 135758795.6354
118	3006980 19382 2 50032 0.01 11.56 1156 0 0 0 0
119	3026362 19382 2 50032 0.01 11.56 1156 0 0 0 0
120	3045744 28696 2 50032 0.01 11.56 1156 33 145.29904683632 70629.900269419 5682317.1452118
121	3074440 35456 2 50032 0.01 11.56 1156 69.330891714897 341.38928554687 221446.83163159 50132810.121905
122	3109896 19382 2 50032 0.01 11.56 1156 0 0 0 0
123	3129278 19382 2 50032 0.01 11.56 1156 0 0 0 0
124	3148660 30768 2 50032 0.01 11.56 1156 369.28365852203 481.86 524199.60475087 239084440.27215
125	3179428 35418 2 50032 0.01 11.56 1156 195.71841147911 468.5040487509 399802.92093089 145987632.71986
126	3214846 19382 2 50032 0.01 11.56 1156 0 0 0 0
127	3234228 19382 2 50032 0.01 11.56 1156 0 0 0 0
128	3253610 29748 2 50032 0.01 11.56 1156 26.6 139.64219194634 63990.100698725 4941004.4789233
129	3283358 35439 2 50032 0.01 11.56 1156 64.439736629794 337.70773975849 216758.53711041 48367287.758757
130	3318797 19382 2 50032 0.01 11.56 1156 0 0 0 0
131	3338179 19382 2 50032 0.01 11.56 1156 0 0 0 0
132	3357561 31287 2 50032 0.01 11.56 1156 349.26510715569 478.66 513006.11156846 229484273.71779
133	3388848 35439 2 50032 0.01 11.56 1156 211.69739400732 471.64471904755 414785.19907512 155996746.34343
134	3424287 19382 2 50032 0.01 11.56 1156 0 0 0 0
135	3443669 19382 2 50032 0.01 11.56 1156 0 0 0 0
136	3463051 30599 2 50032 0.01 11.56 1156 29.8 163.18196752882 77133.869002675 7101193.3741018
137	3493650 35412 2 50032 0.01 11.56 1156 217.6051068991 475.2652207879 421040.52309355 160391436.01278
138	3529062 19382 2 50032 0.01 11.56 1156 0 0 0 0
139	3548444 19382 2 50032 0.01 11.56 1156 0 0 0 0
140	3567826 30432 2 50032 0.01 11.56 1156 29.8 159.47828421182 75139.500818583 6719863.0743143
141	3598258 35455 2 50032 0.01 11.56 1156 61.358359322524 321.72013171545 201831.94170002 42414853.685964
142	3633713 19382 2 50032 0.01 11.56 1156 0 0 0 0
143	3653095 19382 2 50032 0.01 11.56 1156 0 0 0 0
144	3672477 31375 2 50032 0.01 11.56 1156 354.91652136059 485.06 519597.69052302 235401432.36495
145	3703852 35427 2 50032 0.01 11.56 1156 215.7062574705 476.53764210844 419529.25819186 159442262.38455
146	3739279 19382 2 50032 0.01 11.56 1156 0 0 0 0
147	3758661 19382 2 50032 0.01 11.56 1156 0 0 0 0
148	3778043 30284 2 50032 0.01 11.56 1156 33 179.4768060179 87420.183772632 8978449.9449028
149	3808327 35430 2 50032 0.01 11.56 1156 58.224197921753 305.75403157313 187684.69447048 37025245.177119
150	3843757 19382 2 50032 0.01 11.56 1156 0 0 0 0
151	3863139 19382 2 50032 0.01 11.56 1156 0 0 0 0
152	3882521 31925 2 50032 0.01 11.56 1156 335.07227511164 481.86 507354.94069329 225050075.84959
153	3914446 35430 2 50032 0.01 11.56 1156 231.68132508999 479.62166919891 433645.68856353 169238376.49711
154	3949876 19382 2 50032 0.01 11.56 1156 0 0 0 0
155	3969258 19382 2 50032 0.01 11.56 1156 0 0 0 0
156	3988640 31169 2 50032 0.01 11.56 1156 26.6 173.86695325794 80885.903422038 8053828.452661
157	4019809 35448 2 50032 0.01 11.56 1156 53.317768777445 301.71974530051 182874.44467826 35513835.594987
158	4055257 19382 2 50032 0.01 11.56 1156 0 0 0 0
159	4074639 19382 2 50032 0.01 11.56 1156 0 0 0 0
160	4094021 32478 2 50032 0.01 11.56 1156 315.08413087101 478.66 493991.36258038 214081564.25453
161	4126499 35451 2 50032 0.01 11.56 1156 247.63454284643 482.75245829773 446948.33751853 178706990.15392
162	4161950 19382 2 50032 0.01 11.56 1156 0 0 0 0
163	4181332 19382 2 50032 0.01 11.56 1156 0 0 0 0
164	4200714 31818 2 50032 0.01 11.56 1156 29.8 193.68983739795 94208.731825241 10670627.822541
165	4232532 35430 2 50032 0.01 11.56 1156 50.240683702753 285.75721810457 169594.36789702 30800141.650531
166	4267962 19382 2 50032 0.01 11.56 1156 0 0 0 0
167	4287344 19382 2 50032 0.01 11.56 1156 0 0 0 0
168	4306726 32510 2 50032 0.01 11.56 1156 320.68153373587 485.06 500477.60109229 219683510.13634
169	4339236 35419 2 50032 0.01 11.56 1156 251.69425192848 487.66293318998 451810.44272997 182524609.1659
170	4374655 19382 2 50032 0.01 11.56 1156 0 0 0 0
171	4394037 19382 2 50032 0.01 11.56 1156 0 0 0 0
172	4413419 31952 2 50032 0.01 11.56 1156 33 213.66085816551 108655.93211119 13868750.650072
173	4445371 35450 2 50032 0.01 11.56 1156 47.115459113127 269.81688273402 157124.20165349 26596777.424161
174	4480821 19382 2 50032 0.01 11.56 1156 0 0 0 0
175	4500203 19382 2 50032 0.01 11.56 1156 0 0 0 0
176	4519585 33059 2 50032 0.01 11.56 1156 300.86691815434 481.86 486074.57339042 208044992.12228
177	4552644 35427 2 50032 0.01 11.56 1156 267.64423870087 490.73733123976 464258.81891204 191710772.21527
178	4588071 19364 2 50031 0.01 11.55 1155 0 0 0 0
179	4607435 19364 2 50031 0.01 11.55 1155 0 0 0 0
180	4626799 31339 2 50031 0.01 11.55 1155 355.18727777517 485.06 519114.08807862 235167100.35942
181	4658138 35398 2 50031 0.01 11.55 1155 58.97034516204 319.70855235317 199092.57074141 41484780.118628
182	4693536 19364 2 50031 0.01 11.55 1155 0 0 0 0
183	4712900 19364 2 50031 0.01 11.55 1155 0 0 0 0
184	4732264 32533 2 50031 0.01 11.55 1155 26.6 207.81740663138 102011.13597409 12667350.374986
185	4764797 35399 2 50031 0.01 11.55 1155 42.284942352321 265.73175084252 152169.55483699 25323404.532776
186	4800196 19364 2 50031 0.01 11.55 1155 0 0 0 0
187	4819560 19364 2 50031 0.01 11.55 1155 0 0 0 0
188	4838924 33561 2 50031 0.01 11.55 1155 281.1757547195 478.66 470261.90140526 195806567.86996
189	4872485 35393 2 50031 0.01 11.55 1155 283.57169168554 493.77161110224 475398.37188262 200260920.39322
190	4907878 19364 2 50031 0.01 11.55 1155 0 0 0 0
191	4927242 19364 2 50031 0.01 11.55 1155 0 0 0 0
192	4946606 33208 2 50031 0.01 11.55 1155 29.8 227.61976986614 117476.53168169 16287019.269819
193	4979814 35390 2 50031 0.01 11.55 1155 39.2145259329 249.79430449369 140554.45732437 21713562.9631
194	5015204 19364 2 50031 0.01 11.55 1155 0 0 0 0
195	5034568 19364 2 50031 0.01 11.55 1155 0 0 0 0
196	5053932 33637 2 50031 0.01 11.55 1155 286.72383804451 485.06 476634.70120602 201039705.00647
197	5087569 35407 2 50031 0.01 11.55 1155 287.68224638647 498.69811313997 480363.90098182 204416818.89551
198	5122976 19364 2 50031 0.01 11.55 1155 0 0 0 0
199	5142340 19364 2 50031 0.01 11.55 1155 0 0 0 0
200	5161704 33587 2 50031 0.01 11.55 1155 33 247.56207990357 134058.11301726 20588322.312916
201	5195291 35421 2 50031 0.01 11.55 1155 36.098631267347 233.87973389491 129767.04206651 18555747.383787
202	5230712 19364 2 50031 0.01 11.55 1155 0 0 0 0
203	5250076 19364 2 50031 0.01 11.55 1155 0 0 0 0
204	5269440 34174 2 50031 0.01 11.55 1155 266.93665734095 481.86 460097.50815778 188305589.04942
205	5303614 35414 2 50031 0.01 11.55 1155 303.60715231175 501.76359571145 491139.11619443 212846714.24632
206	5339028 19364 2 50031 0.01 11.55 1155 0 0 0 0
207	5358392 19364 2 50031 0.01 11.55 1155 0 0 0 0
208	5377756 33936 2 50031 0.01 11.55 1155 26.6 242.03655447541 127749.36224003 19157055.288505
209	5411692 35397 2 50031 0.01 11.55 1155 31.164798699863 229.74375638454 124742.58244068 17498515.048632
210	5447089 19364 2 50031 0.01 11.55 1155 0 0 0 0
211	5466453 19364 2 50031 0.01 11.55 1155 0 0 0 0
212	5485817 34715 2 50031 0.01 11.55 1155 246.99374190545 478.66 442414.13652533 175139595.25051
213	5520532 35407 2 50031 0.01 11.55 1155 319.50884052465 501.9683297963 501008.92610653 220729411.97787
214	5555939 19364 2 50031 0.01 11.55 1155 0 0 0 0
215	5575303 19364 2 50031 0.01 11.55 1155 0 0 0 0
216	5594667 34611 2 50031 0.01 11.55 1155 29.8 261.83783189894 145382.04804602 23965039.760992
217	5629278 35409 2 50031 0.01 11.55 1155 30.065853436151 213.83139088281 114833.72734869 14854354.129225
218	5664687 19364 2 50031 0.01 11.55 1155 0 0 0 0
219	5684051 19364 2 50031 0.01 11.55 1155 0 0 0 0
220	5703415 34802 2 50031 0.01 11.55 1155 252.50221572362 485.06 448680.2137392 179959768.67848
221	5738217 35408 2 50031 0.01 11.55 1155 323.67024084445 508.70441120386 506158.81562602 225283555.4139
222	5773625 19364 2 50031 0.01 11.55 1155 0 0 0 0
223	5792989 19364 2 50031 0.01 11.55 1155 0 0 0 0
224	5812353 28990 2 50031 0.01 11.55 1155 33 152.79470225581 74035.718923995 6307981.2756256
225	5841343 35403 2 50031 0.01 11.55 1155 201.96845644221 468.5249598313 405307.6262214 149677427.91625
226	5876746 19364 2 50031 0.01 11.55 1155 0 0 0 0
227	5896110 19364 2 50031 0.01 11.55 1155 0 0 0 0
228	5915474 30880 2 50031 0.01 11.55 1155 365.57916907456 481.86 521997.90662434 237392081.61773
229	5946354 35417 2 50031 0.01 11.55 1155 65.712109121177 335.52165035015 214729.42422737 47496647.600628
230	5981771 19364 2 50031 0.01 11.55 1155 0 0 0 0
231	6001135 19364 2 50031 0.01 11.55 1155 0 0 0 0
232	6020499 29737 2 50031 0.01 11.55 1155 26.6 139.35965915973 63962.869300276 4939976.3428162
233	6050236 35412 2 50031 0.01 11.55 1155 197.72005849842 470.88844914074 401992.34811274 147612038.35867
234	6085648 19364 2 50031 0.01 11.55 1155 0 0 0 0
235	6105012 19364 2 50031 0.01 11.55 1155 0 0 0 0
236	6124376 30757 2 50031 0.01 11.55 1155 375.95418261629 478.66 524035.67270353 238911239.83638
237	6155133 35406 2 50031 0.01 11.55 1155 72.448388753053 349.24243030772 230754.99796022 54028440.085177
238	6190539 19364 2 50031 0.01 11.55 1155 0 0 0 0
239	6209903 19364 2 50031 0.01 11.55 1155 0 0 0 0
240	6229267 35426 3 50032 0.02 11.56 1155 27.711370731183 27.769997667971 32047.826955123 889232.40715547
241	6264693 35418 3 50032 0.02 11.56 1155 27.699107340127 27.769755164175 32047.124605125 889193.39703056
242	6300111 35410 3 50032 0.02 11.56 1155 27.718959958787 27.769319976397 32052.07007463 889467.79937404
243	6335521 35413 3 50032 0.02 11.56 1155 27.731581722424 27.769984470231 32059.017453142 889853.40295338
244	6370934 35387 3 50032 0.02 11.56 1155 27.710134393259 27.76997889255 32053.590145122 889552.26007167
245	6406321 35402 3 50032 0.02 11.56 1155 27.708035179544 27.769801120511 32049.277422024 889312.88233318
246	6441723 35418 3 50032 0.02 11.56 1155 27.729470976415 27.769940632214 32061.61374484 889997.52079018
247	6477141 35410 3 50032 0.02 11.56 1155 27.721087206813 27.769894284602 32056.032453394 889687.74593396
248	6512551 35402 3 50032 0.02 11.56 1155 27.719659622423 27.7695511613 32054.688225344 889613.08791426
249	6547953 35390 3 50032 0.02 11.56 1155 27.724478079437 27.769985769784 32058.845080211 889843.84597154
250	6583343 35397 3 50032 0.02 11.56 1155 27.719820251569 27.769990248733 32055.845429577 889677.37501831
251	6618740 35388 3 50032 0.02 11.56 1155 27.720557109427 27.769976283446 32049.431593901 889321.38587219
252	6654128 35428 3 50032 0.02 11.56 1155 27.726971066591 27.769976755987 32059.281823277 889868.09063599
253	6689556 35427 3 50032 0.02 11.56 1155 27.732725979724 27.769994143011 32061.63321256 889998.59804411
254	6724983 35425 3 50032 0.02 11.56 1155 27.719900616226 27.769951867346 32057.969385361 889795.25148186
255	6760408 35412 3 50032 0.02 11.56 1155 27.719921633803 27.769940423801 32051.600260294 889441.73783782
256	6795820 35412 3 50032 0.02 11.56 1155 27.722884750395 27.769985269268 32059.84758808 889899.50622169
257	6831232 35406 3 50032 0.02 11.56 1155 27.728990402914 27.769997529064 32056.931595535 889737.62948377
258	6866638 35405 3 50032 0.02 11.56 1155 27.725180273682 27.768812991301 32052.834831828 889510.21473678
259	6902043 35419 3 50032 0.02 11.56 1155 27.722578805319 27.769987167085 32061.232114212 889976.35006612
260	6937462 35402 3 50032 0.02 11.56 1155 27.705061641281 27.769915120334 32057.544884288 889771.72071573
261	6972864 35402 3 50032 0.02 11.56 1155 27.710207608442 27.769889376768 32049.062455535 889300.9436567
262	7008266 35394 3 50032 0.02 11.56 1155 27.7368836671 27.769975848309 32061.338180396 889982.21717102
263	7043660 35405 3 50032 0.02 11.56 1155 27.701574657576 27.769934045278 32050.106409325 889358.91745791
264	7079065 35403 3 50032 0.02 11.56 1155 27.724805646932 27.769902091219 32060.210100339 889919.6120648
265	7114468 35411 3 50032 0.02 11.56 1155 27.69827592885 27.769218637424 32050.384781821 889374.30663102
266	7149879 35435 3 50032 0.02 11.56 1155 27.721727293402 27.769936440229 32057.887726172 889790.71707463
267	7185314 35399 3 50032 0.02 11.56 1155 27.732010217246 27.769866673708 32059.276787554 889867.79551914
268	7220713 35405 3 50032 0.02 11.56 1155 27.71910575435 27.769129652723 32052.684884788 889501.91265334
269	7256118 35418 3 50032 0.02 11.56 1155 27.715391033576 27.769950409858 32060.00567707 889908.2812501
270	7291536 35415 3 50032 0.02 11.56 1155 27.731817330581 27.769973759087 32060.320251987 889925.7174908
271	7326951 35419 3 50032 0.02 11.56 1155 27.715333166336 27.768978792736 32051.000832953 889408.47554649
272	7362370 35415 3 50032 0.02 11.56 1155 27.723547109163 27.76998193862 32061.695925433 890002.0856314
273	7397785 35414 3 50032 0.02 11.56 1155 27.738314364017 27.76992525611 32061.069809767 889967.31847316
274	7433199 35411 3 50032 0.02 11.56 1155 27.718077878553 27.769477376454 32049.959990816 889350.71127066
275	7468610 35430 3 50032 0.02 11.56 1155 27.705856315888 27.769660689451 32051.063663693 889411.97501261
276	7504040 35428 3 50032 0.02 11.56 1155 27.723354413938 27.769998128234 32060.45369519 889933.14245036
277	7539468 35418 3 50032 0.02 11.56 1155 27.730612355439 27.769978779769 32060.326078058 889926.04820036
278	7574886 35400 3 50032 0.02 11.56 1155 27.701773333824 27.769854622284 32051.95487263 889461.44325682
279	7610286 35421 3 50032 0.02 11.56 1155 27.733262523693 27.769995341667 32061.553677525 889994.17971943
280	7645707 35432 3 50032 0.02 11.56 1155 27.737195750379 27.769999570713 32061.396606357 889985.45510241
281	7681139 35400 3 50032 0.02 11.56 1155 27.722335465787 27.769302239713 32052.026663373 889465.37569805
282	7716539 35412 3 50032 0.02 11.56 1155 27.735831850442 27.769967179573 32061.385685098 889984.85213661
283	7751951 35417 3 50032 0.02 11.56 1155 27.730716111008 27.769977337991 32061.01195543 889964.12360062
284	7787368 35408 3 50032 0.02 11.56 1155 27.707796980285 27.769971033671 32052.281416695 889479.54368329
285	7822776 35388 3 50031 0.02 11.55 1154 27.72191874778 27.769997576332 32031.444838103 889093.21107556
286	7858164 35394 3 50031 0.02 11.55 1154 27.733764622999 27.769997846843 32032.548834225 889154.4601085
287	7893558 35376 3 50031 0.02 11.55 1154 27.725609506583 27.76998777704 32033.03065931 889181.21600582
288	7928934 35369 3 50031 0.02 11.55 1154 27.723458968684 27.769941685793 32023.391028741 888646.17023284
289	7964303 35385 3 50031 0.02 11.55 1154 27.718684898221 27.769984267345 32033.153350117 889188.04587077
290	7999688 35381 3 50031 0.02 11.55 1154 27.717586274999 27.769919578867 32031.872199276 889116.94493875
291	8035069 35367 3 50031 0.02 11.55 1154 27.712419513794 27.769824075872 32023.6226019 888659.04301246
292	8070436 35363 3 50031 0.02 11.55 1154 27.725242504426 27.769964410736 32031.817543125 889113.87404439
293	8105799 35380 3 50031 0.02 11.55 1154 27.734014179431 27.769921141181 32033.489869133 889206.6968503
294	8141179 35382 3 50031 0.02 11.55 1154 27.721725921179 27.76964544345 32025.048993825 888738.18591817
295	8176561 35365 3 50031 0.02 11.55 1154 27.722861907459 27.769959502157 32032.680210616 889161.7751567
296	8211926 35394 3 50031 0.02 11.55 1154 27.712259966807 27.769992504306 32024.461003218 888705.62357512
297	8247320 35393 3 50031 0.02 11.55 1154 27.705950006877 27.769839736492 32022.5016862 888596.85480097
298	8282713 35382 3 50031 0.02 11.55 1154 27.724351617699 27.769954906406 32031.184122471 889078.7387362
299	8318095 35396 3 50031 0.02 11.55 1154 27.692554832512 27.769809583552 32022.262236134 888583.64490434
300	8353491 37353 4 50032 0.03 11.56 1154 -1.145902975404 0.7169111752745 -0.53115317110333 176.66455444309
301	8390844 35241 4 50032 0.03 11.56 1154 -0.80712526172784 9.2193105881247 5154.9834453028 30392.237546647
302	8426085 37371 4 50032 0.03 11.56 1154 -1.0312943297237 0.73603748783597 -1.4457757577784 164.27064857081
303	8463456 35343 4 50032 0.03 11.56 1154 -0.65224478264923 9.3334047843168 5119.6256230712 29807.663144291
304	8498799 37374 4 50032 0.03 11.56 1154 -1.0518108504932 0.73057473878357 -1.188506197547 165.05126400188
305	8536173 35390 4 50032 0.03 11.56 1154 -0.81160219672375 9.3000288422505 5112.5197573693 29876.850578325
306	8571563 37316 4 50032 0.03 11.56 1154 -1.1363220072237 0.71796041138263 0.38627717382056 173.51891057764
307	8608879 35247 4 50032 0.03 11.56 1154 -0.62738960323483 9.2240798335814 5169.761584551 30313.732480414
308	8644126 37326 4 50032 0.03 11.56 1154 -1.0335643605117 0.71854437930092 -0.32585710177067 169.31535708395
309	8681452 35245 4 50032 0.03 11.56 1154 -0.60438216620982 9.2184925618834 5153.9845494943 30107.529811534
310	8716697 37328 4 50032 0.03 11.56 1154 -1.0746209131113 0.72872395625403 -0.90182070736802 163.84044460128
311	8754025 35396 4 50032 0.03 11.56 1154 -0.75339855912759 9.2927081866309 5114.3583664391 29829.706577112
312	8789421 37282 4 50032 0.03 11.56 1154 -1.1995561566437 0.71125269138328 -0.74955142158046 183.26410845833
313	8826703 35188 4 50032 0.03 11.56 1154 -0.7512853683016 9.1773404319914 5182.9247088875 30689.822725786
314	8861891 37339 4 50032 0.03 11.56 1154 -1.1447081752703 0.72084446457623 -0.54456270064733 168.20947650362
315	8899230 35296 4 50032 0.03 11.56 1154 -0.82813610355064 9.2421350238876 5155.8483889597 30019.564707731
316	8934526 37376 4 50032 0.03 11.56 1154 -1.0488054943679 0.714367399301 -1.3188434977856 164.4665010565
317	8971902 35335 4 50032 0.03 11.56 1154 -0.81630852040427 9.1980605243427 5124.6126447275 29850.255720708
318	9007237 37349 4 50032 0.03 11.56 1154 -1.1124154509162 0.71009365933392 -0.0382452225832 170.29439317497
319	9044586 35285 4 50032 0.03 11.56 1154 -0.5630482929029 9.1781829482075 5164.7969389307 30144.569540826
320	9079871 37359 4 50032 0.03 11.56 1154 -1.2218955755817 0.71583954199497 -2.335377483865 186.24163081658
321	9117230 35172 4 50032 0.03 11.56 1154 -0.84551786559581 9.2090171211223 5172.0244110405 30701.551257423
322	9152402 37361 4 50032 0.03 11.56 1154 -1.0780896579671 0.71638585439366 -2.8403769138986 164.27785014017
323	9189763 35340 4 50032 0.03 11.56 1154 -0.66767219814374 9.2096591140327 5115.3711018601 29728.666718218
324	9225103 37336 4 50032 0.03 11.56 1154 -1.153874087904 0.71029302902872 -0.038982581227387 188.85049799327
325	9262439 35247 4 50032 0.03 11.56 1154 -0.8254611517992 9.1721254392747 5184.7512930593 30954.282309502
326	9297686 37343 4 50032 0.03 11.56 1154 -1.1036678158593 0.72150824695676 -0.038306378118946 174.0401787413
327	9335029 35247 4 50032 0.03 11.56 1154 -0.8428429499864 9.2440956871159 5166.9176998321 30340.738229412
328	9370276 37352 4 50032 0.03 11.56 1154 -1.140997639159 0.73224329011552 -0.87105098008742 180.58867762988
329	9407628 35223 4 50032 0.03 11.56 1154 -0.80964936872289 9.3175775668212 5171.5131362685 30555.678242679
330	9442851 37319 4 50032 0.03 11.56 1154 -1.0462202209052 0.72516865096617 -1.8975135460675 171.4480579053
331	9480170 35393 4 50032 0.03 11.56 1154 -0.82187371965557 9.2654498241876 5110.5314199239 30118.781482659
332	9515563 37302 4 50032 0.03 11.56 1154 -1.1714463267708 0.72233733595226 -0.7637658494815 186.31093134627
333	9552865 35180 4 50032 0.03 11.56 1154 -0.8407991011611 9.2499464232388 5191.6978295173 30778.95599313
334	9588045 37305 4 50032 0.03 11.56 1154 -1.1874675459694 0.71500921236236 -0.5757586506661 174.20231923503
335	9625350 35228 4 50032 0.03 11.56 1154 -0.83077405939989 9.2044159737651 5165.9906950236 30294.325503213
336	9660578 37361 4 50032 0.03 11.56 1154 -0.911218798608 0.72122223841262 -2.3479014259962 158.52110218118
337	9697939 35432 4 50032 0.03 11.56 1154 -0.75600005728035 9.2443364780504 5097.7849709689 29529.719683735
338	9733371 37293 4 50032 0.03 11.56 1154 -1.1106835001272 0.69992097049969 -0.55871415485313 188.63024793309
339	9770664 35183 4 50032 0.03 11.56 1154 -0.82136537592628 9.1094871600274 5176.8381356867 30960.775366182
340	9805847 37317 4 50032 0.03 11.56 1154 -1.2274906726091 0.72788161117003 -0.53104030497444 186.05142386001
341	9843164 35146 4 50032 0.03 11.56 1154 -0.82123373080821 9.2741671535444 5185.572043607 30815.380054917
342	9878310 37374 4 50032 0.03 11.56 1154 -1.121095343392 0.75354093411413 -1.2569689434223 173.99813575269
343	9915684 35326 4 50032 0.03 11.56 1154 -0.76209542874595 9.4492516898165 5126.2558586709 30246.650078386
344	9951010 37288 4 50032 0.03 11.56 1154 -1.1858555168146 0.70942751299761 0.39066978584756 178.2904678032
345	9988298 35174 4 50032 0.03 11.56 1154 -0.81752496023074 9.1660073588996 5190.5338376037 30518.699843488
346	10023472 37315 4 50032 0.03 11.56 1154 -1.1868602485112 0.73423941482034 -0.92944690033541 167.83345704106
347	10060787 35295 4 50032 0.03 11.56 1154 -0.6848138826752 9.3151294032319 5142.5967790558 29976.821447626
348	10096082 37277 4 50032 0.03 11.56 1154 -1.1304144968744 0.7131978451234 -0.22729234060996 186.25056461583
349	10133359 35254 4 50032 0.03 11.56 1154 -0.79971271577502 9.1975574450883 5176.2958667938 30835.92746498
350	10168613 37348 4 50032 0.03 11.56 1154 -1.0462938246768 0.73295076798452 -1.4582408114915 172.08552045237
351	10205961 35347 4 50032 0.03 11.56 1154 -0.8152236992324 9.311537619542 5111.9873822407 30172.931689412
352	10241308 37318 4 50032 0.03 11.56 1154 -1.0765534892563 0.71861679404357 0.39375794585794 177.05624155564
353	10278626 35303 4 50032 0.03 11.56 1154 -0.82839350378732 9.2220741079824 5156.7572189588 30511.177098096
354	10313929 37330 4 50032 0.03 11.56 1154 -1.1820864479525 0.7302460608269 -1.3407927670997 181.53097466483
355	10351259 35229 4 50032 0.03 11.56 1154 -0.84445745122252 9.3054137635625 5167.8391858936 30564.355365498
356	10386488 37328 4 50032 0.03 11.56 1154 -1.0603985411223 0.71882974340518 -0.67479416624217 179.01576978363
357	10423816 35345 4 50032 0.03 11.56 1154 -0.83128686865197 9.2253257772587 5135.5596702023 30524.647605628
358	10459161 37326 4 50032 0.03 11.56 1154 -1.2303327035625 0.72842093310186 -0.69450109021361 194.27914761624
359	10496487 35169 4 50032 0.03 11.56 1154 -0.84690828177048 9.2899355159028 5186.9722507418 31148.129284786
360	10531656 37302 4 50032 0.03 11.56 1154 -1.2158949277364 0.71734199219833 -1.8423998180726 187.90682080315
361	10568958 35198 4 50032 0.03 11.56 1154 -0.78596246406343 9.2219469422392 5179.218088537 30808.101025827
362	10604156 37349 4 50032 0.03 11.56 1154 -0.99238627538654 0.72205877183613 -0.71169054645566 166.33956487597
363	10641505 35390 4 50032 0.03 11.56 1154 -0.80481682136052 9.2515326409105 5118.1692647704 29965.540706211
364	10676895 37332 4 50032 0.03 11.56 1154 -1.2022253041504 0.71924347416434 0.55152307529376 188.67951636162
365	10714227 35203 4 50032 0.03 11.56 1154 -0.81833919325228 9.2292269773912 5193.9098574009 30994.227580887
366	10749430 37304 4 50032 0.03 11.56 1154 -1.1864524622798 0.71214951822078 -0.27716888988074 188.93895451076
367	10786734 35169 4 50032 0.03 11.56 1154 -0.76518203566443 9.1908392625012 5192.4225879338 30958.377235472
368	10821903 37344 4 50032 0.03 11.56 1154 -1.1068775254532 0.73104378778801 -3.1156677858007 170.66727424994
369	10859247 35314 4 50032 0.03 11.56 1154 -0.67971332691526 9.3073153242261 5123.1490706972 29996.272264022
370	10894561 37374 4 50032 0.03 11.56 1154 -1.0990245105798 0.73693050299717 -1.6796017875105 162.16884470161
371	10931935 35389 4 50032 0.03 11.56 1154 -0.82186182708151 9.3353287286445 5107.9394087098 29719.414476959
372	10967324 37332 4 50032 0.03 11.56 1154 -1.2286525391392 0.72719490989819 -0.26264568616163 177.92007081892
373	11004656 35304 4 50032 0.03 11.56 1154 -0.80481682136052 9.2871521338235 5162.1017505313 30480.904108032
374	11039960 37310 4 50032 0.03 11.56 1154 -1.2038789730287 0.71848812466726 -1.0290879542037 187.68464149606
375	11077270 35105 4 50032 0.03 11.56 1154 -0.84098130438424 9.2278261323921 5199.0879180264 30846.714797131
376	11112375 37349 4 50032 0.03 11.56 1154 -1.0434113544761 0.72141880053529 -0.73068786152106 162.42989204313
377	11149724 35399 4 50032 0.03 11.56 1154 -0.83069734335498 9.2409187412237 5110.7235031752 29790.248493542
378	11185123 37313 4 50032 0.03 11.56 1154 -1.1970607627884 0.69595513200866 -0.62483492947649 176.35358617283
379	11222436 35203 4 50032 0.03 11.56 1154 -0.80679692814175 9.083344157723 5179.024519397 30372.534408656
380	11257639 37293 4 50032 0.03 11.56 1154 -1.1813739943317 0.70962962867966 -1.9142208732287 189.88936135482
381	11294932 35144 4 50032 0.03 11.56 1154 -0.71588882306604 9.1738413385778 5185.9771863543 30894.847041755
382	11330076 37376 4 50032 0.03 11.56 1154 -0.96834084368282 0.71170872985746 -3.2004336201307 158.62118680448
383	11367452 35378 4 50032 0.03 11.56 1154 -0.59036377469243 9.1831871735467 5101.0091186661 29477.606057278
384	11402830 37297 4 50032 0.03 11.56 1154 -1.0981220813118 0.70120175692665 -0.33811869780784 178.44734141188
385	11440127 35199 4 50032 0.03 11.56 1154 -0.80710465445749 9.1165797068846 5181.752958391 30509.855034858
386	11475326 37292 4 50032 0.03 11.56 1154 -1.1831746125246 0.72062952244849 0.99101410218303 188.37500345603
387	11512618 35190 4 50032 0.03 11.56 1154 -0.82533573974126 9.2407098758224 5200.9902978014 30990.33584713
388	11547808 37313 4 50032 0.03 11.56 1154 -1.1018766864435 0.71813585223666 -0.6775351286624 174.57316188252
389	11585121 35330 4 50032 0.03 11.56 1154 -0.80632979190559 9.2224463683063 5138.851289285 30303.077299182
390	11620451 37300 4 50031 0.03 11.55 1153 -1.0977696051125 0.71886676682098 -0.44534361820858 180.5387146665
391	11657751 35101 4 50031 0.03 11.55 1153 -0.81110693242586 9.2313104669225 5189.1500006496 30547.531634453
392	11692852 37304 4 50031 0.03 11.55 1153 -1.1341570143124 0.71894989977359 -0.77280510545918 178.39289432724
393	11730156 35242 4 50031 0.03 11.55 1153 -0.83134992203988 9.22827327 5159.6054992246 30457.611410406
394	11765398 37264 4 50031 0.03 11.55 1153 -1.2194242668922 0.72000146943587 -0.59957547228038 184.78359061675
395	11802662 35223 4 50031 0.03 11.55 1153 -0.75693227340935 9.2369044151627 5167.6575679811 30742.939287177
396	11837885 37359 4 50031 0.03 11.55 1153 -0.95741649276988 0.7289528305197 -1.1163893328902 166.57901266328
397	11875244 35354 4 50031 0.03 11.55 1153 -0.67703805824688 9.291627395198 5111.0229599973 29933.813654629
398	11910598 37272 4 50031 0.03 11.55 1153 -1.1975769637502 0.71273206459637 0.15847633396397 183.19311905516
399	11947870 35067 4 50031 0.03 11.55 1153 -0.83475783026519 9.1946573756276 5207.3121989291 30670.231145621
400	11982937 37251 4 50031 0.03 11.55 1153 -1.2249723658897 0.74053746761784 -0.62365390076025 184.85265468362
401	12020188 35076 4 50031 0.03 11.55 1153 -0.67535215813881 9.3680440063294 5200.5959156742 30711.244001212
402	12055264 37329 4 50031 0.03 11.55 1153 -0.98516691999997 0.71289636490981 -2.2951886799195 167.67752227748
403	12092593 35286 4 50031 0.03 11.55 1153 -0.71788360549191 9.1809478339415 5117.7518386718 29905.907328118
404	12127879 37274 4 50031 0.03 11.55 1153 -1.1980388549276 0.72523159439157 -0.5655618917082 191.93085611822
405	12165153 35191 4 50031 0.03 11.55 1153 -0.81563928981196 9.2737501166032 5181.3080142604 31032.507761369
406	12200344 37298 4 50031 0.03 11.55 1153 -1.2348470621507 0.70384227837543 0.83461383444963 184.05321114951
407	12237642 35140 4 50031 0.03 11.55 1153 -0.84573860016323 9.1294331292607 5205.0052447566 30748.058518315
408	12272782 37300 4 50031 0.03 11.55 1153 -1.0412797365547 0.70816548101682 -1.4228652355158 165.30150038453
409	12310082 35322 4 50031 0.03 11.55 1153 -0.84076917370359 9.1568736476779 5117.9031913217 29854.259347803
410	12345404 37293 4 50031 0.03 11.55 1153 -1.2131840907387 0.71056717648972 -0.65545274348899 184.23049639954
411	12382697 35276 4 50031 0.03 11.55 1153 -0.8446149171477 9.1783199173702 5160.4893466113 30708.456417085
412	12417973 37297 4 50031 0.03 11.55 1153 -1.0724085767286 0.71869093527397 -0.92353560377028 168.81465896082
413	12455270 35306 4 50031 0.03 11.55 1153 -0.75424459987663 9.2242499406309 5136.8624218221 30018.08514833
414	12490576 37333 4 50031 0.03 11.55 1153 -1.1160559749854 0.72078937898148 -0.13517595216399 171.21889553372
415	12527909 35324 4 50031 0.03 11.55 1153 -0.73533611754215 9.2337848366942 5127.3521561433 30181.660129784
416	12563233 37321 4 50031 0.03 11.55 1153 -1.1489038551961 0.71511111513445 -0.65754807539591 186.40282854901
417	12600554 35201 4 50031 0.03 11.55 1153 -0.79222723051882 9.2091411553152 5176.3312874689 30798.98810838
418	12635755 37286 4 50031 0.03 11.55 1153 -1.1870611138875 0.74974848394049 -1.8325493153927 176.08812451546
419	12673041 35272 4 50031 0.03 11.55 1153 -0.80598717362817 9.4204832038598 5133.0812478977 30269.133104705
420	12708313 3481 143 49976 0.110055034489 11.517981052008 130 0 2 89 111
421	12711794 4555 143 49976 0.110055034489 11.517981052008 130 0 27.762666046531 2165.1624855985 60101.649224216
422	12716349 3481 143 49976 0.110055034489 11.517981052008 130 0 0 0 0
423	12719830 3581 143 49976 0.110055034489 11.517981052008 130 1 20 1503 18831
424	12723411 3481 143 49976 0.110055034489 11.517981052008 130 0 0 0 0
425	12726892 3458 147 49984 0.110055047618 11.517981063625 129 0 1 66 66
426	12730350 4375 147 49984 0.110055047618 11.517981063625 129 0 27.758279210968 1831.4630655774 50822.078325484
427	12734725 3458 147 49984 0.110055047618 11.517981063625 129 0 0 0 0
428	12738183 3555 147 49984 0.110055047618 11.517981063625 129 1 19 1489 18663
429	12741738 3458 147 49984 0.110055047618 11.517981063625 129 0 0 0 0
430	12745196 3475 151 49972 0.110055074303 11.517981045332 130 0 2 88 120
431	12748671 4464 151 49972 0.110055074303 11.517981045332 130 0 27.758279210968 1997.9632957332 55442.465754654
432	12753135 3475 151 49972 0.110055074303 11.517981045332 130 0 0 0 0
433	12756610 3579 151 49972 0.110055074303 11.517981045332 130 1 20 1507 18919
434	12760189 3475 151 49972 0.110055074303 11.517981045332 130 0 0 0 0
435	12763664 3506 155 49980 0.110055099643 11.517981056836 131 0 2 68 76
436	12767170 4390 155 49980 0.110055099643 11.517981056836 131 0 27.762666046531 1776.5190964904 49312.814861436
437	12771560 3506 155 49980 0.110055099643 11.517981056836 131 0 0 0 0
438	12775066 3606 155 49980 0.110055099643 11.517981056836 131 1 20 1531 19565
439	12778672 3506 155 49980 0.110055099643 11.517981056836 131 0 0 0 0
440	12782178 3375 159 50000 0.110055115072 11.517981077148 126 0 2 92 148
441	12785553 4271 159 50000 0.110055115072 11.517981077148 126 0 27.765657502062 1776.3938121851 49305.862406114
442	12789824 3375 159 50000 0.110055115072 11.517981077148 126 0 0 0 0
443	12793199 3463 159 50000 0.110055115072 11.517981077148 126 1 20 1435 17909
444	12796662 3375 159 50000 0.110055115072 11.517981077148 126 0 0 0 0
445	12800037 3429 163 49968 0.110055120042 11.517981022421 128 0 2 118 192
[...]
470	97108126 3700 307257 355646 69.173210846446 79.951975539882 128 0 1 49 49
472	97111826 3700 307257 355646 69.173210846446 79.951975539882 128 0 0 0 0
474	97115526 3700 307257 355646 69.173210846446 79.951975539882 128 0 3 249 593
473	97119226 3809 307257 355646 69.173210846446 79.951975539882 128 8 19 1527 19007
171	97123035 20898 306883 355818 68.94 80 1107 0 1 1093 1093
170	97143933 20898 306883 355818 68.94 80 1107 0 1 452 452
385	97164831 34609 306883 355818 68.94 80 1107 0.28813441616914 19.472326419671 10497.498546105 138835.07291792
384	97199440 35324 306883 355818 68.94 80 1107 -9 2.4994110083206 158.1133312316 11924.416298626
282	97234764 36279 306883 355818 68.94 80 1107 22.232281373507 25.864237657285 25728.305066158 599170.96039396
169	97271043 36278 306883 355818 68.94 80 1107 285.08598238456 478.42627101879 439047.86695507 177909883.06366
168	97307321 34154 306883 355818 68.94 80 1107 349.10479141124 485.06 483949.5635367 213502457.28296
621	97341475 4093 307141 355710 69.173209736278 79.951976509443 130 0 23.297236755468 594.92925997138 13617.593866069
620	97345568 3755 307141 355710 69.173209736278 79.951976509443 130 0 1 26 26
622	97349323 3755 307141 355710 69.173209736278 79.951976509443 130 0 0 0 0
624	97353078 3794 307141 355710 69.173209736278 79.951976509443 130 0 15 1011 11297
623	97356872 3864 307141 355710 69.173209736278 79.951976509443 130 8 19 1579 20155
175	97360736 20898 306883 355818 68.94 80 1107 0 0 0 0
174	97381634 20898 306883 355818 68.94 80 1107 0 0 0 0
387	97402532 35658 306883 355818 68.94 80 1107 0.064798111432114 12.05551008533 6026.1120442412 43977.828821678
386	97438190 37608 306883 355818 68.94 80 1107 -0.8092798777497 2.1123759273141 484.49161394468 752.53211651478
283	97475798 36295 306883 355818 68.94 80 1107 17.943656695708 23.44894282588 24590.63826976 548775.93405192
173	97512093 36276 306883 355818 68.94 80 1107 33.423085354646 132.99811221466 76452.532233993 6187752.3761293
172	97548369 36283 306883 355818 68.94 80 1107 78.273927186795 286.87408314948 188706.40551911 36643096.382242
486	97584652 3856 307261 355670 69.173210848249 79.951975708361 123 0 27.74267670734 610.19452186094 16924.426152298
485	97588508 3559 307261 355670 69.173210848249 79.951975708361 123 0 1 22 22
487	97592067 3559 307261 355670 69.173210848249 79.951975708361 123 0 0 0 0
489	97595626 3559 307261 355670 69.173210848249 79.951975708361 123 0 3 239 569
488	97599185 3646 307261 355670 69.173210848249 79.951975708361 123 7 19 1411 17121
179	97602831 20898 306883 355818 68.94 80 1107 0 1 640 640
178	97623729 20898 306883 355818 68.94 80 1107 0 1 103 103
389	97644627 33598 306883 355818 68.94 80 1107 -0.26550180356856 20.833198177237 12001.859746779 181222.33697363
388	97678225 36369 306883 355818 68.94 80 1107 -9 2.4996674960128 338.62280545401 7919.3930857582
284	97714594 36291 306883 355818 68.94 80 1107 22.252928836168 27.767853291465 27945.9672523 708606.22893108
177	97750885 36277 306883 355818 68.94 80 1107 313.33594268578 492.17646181475 466500.17334302 199747044.07915
176	97787162 35290 306883 355818 68.94 80 1107 296.43839425313 481.86 452128.80945053 188060669.6782
551	97822452 4855 307165 355658 69.173210675645 79.951975609618 129 0 26.398235330351 1848.6187549787 42232.200049403
550	97827307 3725 307165 355658 69.173210675645 79.951975609618 129 0 2 102 144
552	97831032 3725 307165 355658 69.173210675645 79.951975609618 129 0 0 0 0
554	97834757 3725 307165 355658 69.173210675645 79.951975609618 129 0 3 252 602
553	97838482 3831 307165 355658 69.173210675645 79.951975609618 129 8 20 1560 19990
183	97842313 20898 306883 355818 68.94 80 1107 0 1 1069 1069
182	97863211 20898 306883 355818 68.94 80 1107 0 1 507 507
391	97884109 33277 306883 355818 68.94 80 1107 -0.62479905897961 8.5752867878782 3380.6395665384 15963.57104192
390	97917386 37746 306883 355818 68.94 80 1107 -9 0.99827647218085 -455.43287108981 1908.6797977113
285	97955132 36282 306883 355818 68.94 80 1107 22.27861721619 27.535445385846 26231.676560158 624008.87862969
181	97991414 36276 306883 355818 68.94 80 1107 71.314442923455 301.74146025605 201758.71699735 41566715.102531
180	98027690 32066 306883 355818 68.94 80 1107 393.17280375173 485.06 509384.25519643 235326447.73726
651	98059756 3941 307133 355714 69.173209677146 79.951976543582 128 0 26.2153128105 437.54840498526 10701.498062378
650	98063697 3707 307133 355714 69.173209677146 79.951976543582 128 0 1 18 18
652	98067404 3707 307133 355714 69.173209677146 79.951976543582 128 0 0 0 0
654	98071111 3731 307133 355714 69.173209677146 79.951976543582 128 0 11 684 5364
653	98074842 3814 307133 355714 69.173209677146 79.951976543582 128 7 19 1532 19188
187	98078656 20917 306882 355818 68.93 80 1108 0 0 0 0
186	98099573 20917 306882 355818 68.93 80 1108 0 0 0 0
393	98120490 36314 306882 355818 68.93 80 1108 -0.39039598787444 13.262172705507 8521.3211089172 75019.766919634
392	98156804 37207 306882 355818 68.93 80 1108 -0.70466458000844 2.324948182693 846.73226537833 1097.4284020153
286	98194011 36291 306882 355818 68.93 80 1108 18.09042745267 26.561067865929 26573.254338528 644286.89611841
185	98230302 36309 306882 355818 68.93 80 1108 26.682621440468 145.4033153357 79331.902754332 7058686.285288
184	98266611 36267 306883 355818 68.94 80 1107 61.455880119725 281.06180164519 170730.45963233 31172510.449511
496	98302878 4006 307265 355682 69.173210849245 79.951975869513 129 0 27.755483864815 555.07148226398 15405.217594079
495	98306884 3726 307265 355682 69.173210849245 79.951975869513 129 0 1 20 20
497	98310610 3726 307265 355682 69.173210849245 79.951975869513 129 0 0 0 0
499	98314336 3726 307265 355682 69.173210849245 79.951975869513 129 0 3 250 594
498	98318062 3836 307265 355682 69.173210849245 79.951975869513 129 8 19 1556 19650
191	98321898 20917 306882 355818 68.93 80 1108 0 0 0 0
190	98342815 20917 306882 355818 68.93 80 1108 0 0 0 0
395	98363732 35776 306882 355818 68.93 80 1108 -0.77955833421907 12.437161907688 5106.8582427371 34049.976017396
394	98399508 38102 306882 355818 68.93 80 1108 -1.2236679936176 1.1967712186742 -0.87088933010797 281.92814384025
287	98437610 36314 306882 355818 68.93 80 1108 27.757500003062 27.769995105443 30762.08869136 854066.892039
189	98473924 36329 306882 355818 68.93 80 1108 334.12060637613 501.96950615101 486830.73049383 216682615.02004
188	98510253 36116 306882 355818 68.93 80 1108 245.16772734563 478.66 418328.04173767 163221338.36147
783	98546369 29 307540 307540 69.215806856463 69.215806856463 1 1 1 1 1
782	98546398 57 307129 307540 69.17320964768 69.215806856463 2 0 1 1 1
616	98546455 4052 307129 355718 69.17320964768 79.951976562555 129 0 24.490342723252 575.68130418214 13865.714999607
615	98550507 3727 307129 355718 69.17320964768 79.951976562555 129 0 1 24 24
617	98554234 3727 307129 355718 69.17320964768 79.951976562555 129 0 1 2 2
619	98557961 3787 307129 355718 69.17320964768 79.951976562555 129 0 16 1286 15686
618	98561748 3838 307129 355718 69.17320964768 79.951976562555 129 8 20 1577 20355
195	98565586 20917 306882 355818 68.93 80 1108 0 1 64 64
194	98586503 20917 306882 355818 68.93 80 1108 0 1 37 37
397	98607420 36040 306882 355818 68.93 80 1108 -0.18641327347926 13.110563295994 7041.165282945 57700.438736994
396	98643460 37458 306882 355818 68.93 80 1108 -0.88520759099602 2.2932362949678 627.04008469251 947.15766989199
288	98680918 36309 306882 355818 68.93 80 1108 18.069506007923 24.935703729656 25730.856263996 601878.2834405
193	98717227 36318 306882 355818 68.93 80 1108 30.078615246371 153.96937535855 86587.586100551 8276997.894983
192	98753545 36315 306882 355818 68.93 80 1108 59.081229868837 268.02169661684 164306.37986318 28752902.911999
501	98789860 3905 307269 355678 69.173210865007 79.951975742212 125 0 27.755189203744 582.82899731702 16175.697187164
500	98793765 3611 307269 355678 69.173210865007 79.951975742212 125 0 1 21 21
502	98797376 3611 307269 355678 69.173210865007 79.951975742212 125 0 0 0 0
504	98800987 3611 307269 355678 69.173210865007 79.951975742212 125 0 3 244 582
503	98804598 3709 307269 355678 69.173210865007 79.951975742212 125 8 19 1466 18078
199	98808307 20917 306882 355818 68.93 80 1108 0 1 1094 1094
198	98829224 20917 306882 355818 68.93 80 1108 0 1 214 214
399	98850141 34914 306882 355818 68.93 80 1108 -0.76407778906129 20.750250981362 10570.907936575 146054.17412427
398	98885055 35407 306882 355818 68.93 80 1108 -9 2.4984519445567 -16.446273708785 12108.089659071
289	98920462 36318 306882 355818 68.93 80 1108 22.237864109678 27.76992500298 28323.551309866 728538.65742064
197	98956780 36311 306882 355818 68.93 80 1108 323.17163605184 498.20620474264 477017.42469549 208329667.53652
196	98993091 35682 306882 355818 68.93 80 1108 288.23754926086 485.06 446715.61158216 183848659.11272
591	99028773 3763 307149 355698 69.173209817663 79.95197644906 130 0 0 0 0
590	99032536 3763 307149 355698 69.173209817663 79.95197644906 130 0 0 0 0
592	99036299 3763 307149 355698 69.173209817663 79.95197644906 130 0 0 0 0
594	99040062 3763 307149 355698 69.173209817663 79.95197644906 130 0 3 254 608
593	99043825 3871 307149 355698 69.173209817663 79.95197644906 130 8 20 1589 20579
203	99047696 20917 306882 355818 68.93 80 1108 0 0 0 0
202	99068613 20917 306882 355818 68.93 80 1108 0 0 0 0
401	99089530 35372 306882 355818 68.93 80 1108 0.063931453799312 12.343385181775 5296.0969793926 35745.178440096
400	99124902 37798 306882 355818 68.93 80 1108 -0.88678729732337 2.0042796579766 290.99694924214 537.60492869739
290	99162700 36309 306882 355818 68.93 80 1108 19.657883598549 23.594580764037 25158.135136788 572272.02597291
201	99199009 36312 306882 355818 68.93 80 1108 33.413586503148 113.44739341882 66875.317652276 4534449.7446474
200	99235321 36312 306882 355818 68.93 80 1108 92.47901055759 315.25631868574 216865.0247894 47534021.027694
516	99271633 3722 307237 355690 69.173210832181 79.951975917358 129 0 0 0 0
515	99275355 3722 307237 355690 69.173210832181 79.951975917358 129 0 0 0 0
517	99279077 3722 307237 355690 69.173210832181 79.951975917358 129 0 0 0 0
519	99282799 3722 307237 355690 69.173210832181 79.951975917358 129 0 3 252 602
518	99286521 3827 307237 355690 69.173210832181 79.951975917358 129 8 20 1571 20297
207	99290348 20917 306882 355818 68.93 80 1108 0 1 641 641
206	99311265 20917 306882 355818 68.93 80 1108 0 0 0 0
403	99332182 36376 306882 355818 68.93 80 1108 -0.21949934945824 8.9165382034385 4914.0142210167 28621.006641756
402	99368558 38162 306882 355818 68.93 80 1108 -1.0077171461351 0.67349319397856 1.3916418121546 154.66702268332
291	99406720 36274 306882 355818 68.93 80 1108 27.677880464245 27.766458075513 30729.652941631 852267.02284962
205	99442994 36298 306882 355818 68.93 80 1108 354.00455056235 505.37067760557 500849.16299567 228644816.31453
204	99479292 36312 306882 355818 68.93 80 1108 228.41419608598 472.5204294027 403422.51522034 152645964.93268
626	99515604 3752 307145 355702 69.173209758469 79.951976474362 130 0 0 0 0
625	99519356 3752 307145 355702 69.173209758469 79.951976474362 130 0 0 0 0
627	99523108 3752 307145 355702 69.173209758469 79.951976474362 130 0 0 0 0
629	99526860 3752 307145 355702 69.173209758469 79.951976474362 130 0 3 254 608
628	99530612 3856 307145 355702 69.173209758469 79.951976474362 130 8 20 1587 20513
211	99534468 20917 306882 355818 68.93 80 1108 0 0 0 0
210	99555385 20917 306882 355818 68.93 80 1108 0 0 0 0
405	99576302 36226 306882 355818 68.93 80 1108 -0.47686856597317 13.139419409546 7727.5446085622 65078.450888623
404	99612528 37416 306882 355818 68.93 80 1108 -0.94622954788264 2.1311013542665 635.44171959807 803.99604040729
292	99649944 36321 306882 355818 68.93 80 1108 20.02061153533 26.672337142815 27511.401719937 687289.52263671
209	99686265 36303 306882 355818 68.93 80 1108 26.697847704083 125.41501271944 67096.728592966 4900478.0067509
208	99722568 36312 306882 355818 68.93 80 1108 75.872664486081 313.49041335508 200117.90478398 41913729.036415
526	99758880 3695 307197 355694 69.173210779269 79.95197602457 128 0 0 0 0
525	99762575 3695 307197 355694 69.173210779269 79.95197602457 128 0 0 0 0
527	99766270 3695 307197 355694 69.173210779269 79.95197602457 128 0 0 0 0
529	99769965 3695 307197 355694 69.173210779269 79.95197602457 128 0 3 251 601
528	99773660 3801 307197 355694 69.173210779269 79.95197602457 128 7 20 1541 19537
215	99777461 20917 306882 355818 68.93 80 1108 0 0 0 0
214	99798378 20917 306882 355818 68.93 80 1108 0 0 0 0
407	99819295 36129 306882 355818 68.93 80 1108 -0.74288246771041 9.0643119899351 4980.5505218275 29277.277060242
406	99855424 38133 306882 355818 68.93 80 1108 -1.1989226788867 0.69430631998699 0.87478762550575 169.7402068153
293	99893557 36325 306882 355818 68.93 80 1108 27.726232622629 27.769960100456 30755.064695704 853676.966802
213	99929882 36282 306882 355818 68.93 80 1108 383.6677307144 501.99627315317 514882.4860722 240449253.25801
212	99966164 36316 306882 355818 68.93 80 1108 188.33320998924 447.01239353951 364845.12337826 126828221.14304
601	100002480 3756 307137 355706 69.173209728919 79.9519764957 130 0 0 0 0
600	100006236 3756 307137 355706 69.173209728919 79.9519764957 130 0 0 0 0
602	100009992 3756 307137 355706 69.173209728919 79.9519764957 130 0 0 0 0
604	100013748 3756 307137 355706 69.173209728919 79.9519764957 130 0 3 254 608
603	100017504 3868 307137 355706 69.173209728919 79.9519764957 130 8 19 1577 20023
219	100021372 20917 306882 355818 68.93 80 1108 0 0 0 0
218	100042289 20917 306882 355818 68.93 80 1108 0 0 0 0
409	100063206 35648 306882 355818 68.93 80 1108 -0.19092848862685 12.993074598532 6214.6199250548 48262.334981344
408	100098854 37692 306882 355818 68.93 80 1108 -0.95908111056531 2.1148655462767 409.71062167146 702.61641352092
294	100136546 36303 306882 355818 68.93 80 1108 19.925589636463 25.05547496524 26426.073756748 632290.79707965
217	100172849 36319 306882 355818 68.93 80 1108 30.06054322618 134.02971426428 73022.424056728 5788669.9144274
216	100209168 36313 306882 355818 68.93 80 1108 73.568909468683 298.08054025304 192382.32300248 38587824.559954
531	100245481 3645 307253 355686 69.17321084253 79.951975914433 126 0 0 0 0
530	100249126 3645 307253 355686 69.17321084253 79.951975914433 126 0 0 0 0
532	100252771 3645 307253 355686 69.17321084253 79.951975914433 126 0 0 0 0
534	100256416 3645 307253 355686 69.17321084253 79.951975914433 126 0 3 244 580
533	100260061 3744 307253 355686 69.17321084253 79.951975914433 126 7 20 1520 19568
223	100263805 20917 306882 355818 68.93 80 1108 0 1 1094 1094
222	100284722 20917 306882 355818 68.93 80 1108 0 0 0 0
411	100305639 36255 306882 355818 68.93 80 1108 -0.83387858209257 9.0360441023885 4953.2744058715 29035.499795472
410	100341894 38155 306882 355818 68.93 80 1108 -1.1892393277527 0.69039427643922 2.1665756672604 162.23371175648
295	100380049 36310 306882 355818 68.93 80 1108 27.721804402042 27.769951578656 30750.125908798 853402.84594719
221	100416359 36298 306882 355818 68.93 80 1108 355.60439148242 508.7300445557 503356.43915886 230967667.72292
220	100452657 36310 306882 355818 68.93 80 1108 231.31321095924 475.31350399741 406609.39843778 154962210.20019
823	100488967 1331 307053 347494 69.173209371234 78.185401644153 46 1 1 46 46
821	100490298 2853 307053 347494 69.173209371234 78.185401644153 99 0 1 53 53
581	100493151 5207 307053 355773 69.173209371234 79.951976687259 127 0 22.953924523696 1933.3544921444 35119.851651172
580	100498358 3671 307053 355773 69.173209371234 79.951976687259 127 0 3 163 301
582	100502029 3671 307053 355773 69.173209371234 79.951976687259 127 0 1 79 79
584	100505700 3798 307053 355773 69.173209371234 79.951976687259 127 51 81 8315 554753
583	100509498 3770 307053 355773 69.173209371234 79.951976687259 127 8 20 1510 19008
227	100513268 20917 306882 355818 68.93 80 1108 0 1 837 837
226	100534185 20917 306882 355818 68.93 80 1108 0 1 431 431
413	100555102 34271 306882 355818 68.93 80 1108 0.973 10.77782258203 5318.7972713311 34604.947584735
412	100589373 37309 306882 355818 68.93 80 1108 -1.5091343946008 1.8931533845574 675.1944676721 1096.3007729497
296	100626682 36323 306882 355818 68.93 80 1108 12.009206249173 20.089108353752 16282.267702283 246617.78639133
225	100663005 36311 306882 355818 68.93 80 1108 121.07626839693 265.85494665321 217457.1996398 44520853.506178
224	100699316 29039 306882 355818 68.93 80 1108 33 86.936052970144 50309.207332809 2593599.3489985
546	100728355 5162 307161 355654 69.173210675501 79.951975581247 130 0 23.051134921047 2276.4590077586 51321.284406338
545	100733517 3755 307161 355654 69.173210675501 79.951975581247 130 0 2 113 137
547	100737272 3755 307161 355654 69.173210675501 79.951975581247 130 0 0 0 0
549	100741027 3755 307161 355654 69.173210675501 79.951975581247 130 0 3 253 603
548	100744782 3865 307161 355654 69.173210675501 79.951975581247 130 8 20 1575 19981
231	100748647 20917 306882 355818 68.93 80 1108 0 1 641 641
230	100769564 20917 306882 355818 68.93 80 1108 0 1 282 282
415	100790481 35486 306882 355818 68.93 80 1108 0.11048553733928 8.5526146409263 3959.0984664814 19248.375611163
414	100825967 38250 306882 355818 68.93 80 1108 -1.1289478476701 0.95171565893502 20.481997539467 209.62541017295
297	100864217 36319 306882 355818 68.93 80 1108 22.568153068787 23.20106229506 25309.25201752 578164.25593543
229	100900536 36305 306882 355818 68.93 80 1108 83.276441243686 309.67276816415 211284.88064544 44992975.048818
228	100936841 31786 306882 355818 68.93 80 1108 401.21497941339 481.86 509707.91085029 235249910.5427
820	100968627 779 309317 333959 69.733451386933 75.110054847004 27 1 1 27 27
819	100969406 1819 307061 334321 69.173209385793 75.110646987085 63 0 1 36 36
586	100971225 4872 307061 355801 69.173209385793 79.951976710307 127 0 24.749987235204 1549.2253115924 29262.554275084
585	100976097 3668 307061 355801 69.173209385793 79.951976710307 127 0 3 134 244
587	100979765 3668 307061 355801 69.173209385793 79.951976710307 127 0 1 51 51
589	100983433 3795 307061 355801 69.173209385793 79.951976710307 127 25 57 5412 242660
588	100987228 3775 307061 355801 69.173209385793 79.951976710307 127 7 20 1523 19303
235	100991003 20917 306882 355818 68.93 80 1108 0 1 445 445
234	101011920 20917 306882 355818 68.93 80 1108 0 1 246 246
417	101032837 34273 306882 355818 68.93 80 1108 0.973 12.139408583833 6173.8005610363 46644.57128796
416	101067110 37148 306882 355818 68.93 80 1108 -1.8625893468911 2.0111944925947 719.70587755211 1363.3513898203
298	101104258 36312 306882 355818 68.93 80 1108 13.073713158294 22.056100913091 17930.869357919 299355.22743213
233	101140570 36307 306882 355818 68.93 80 1108 111.93622388374 271.73627313835 216146.29616791 44417423.948701
232	101176877 30099 306882 355818 68.93 80 1108 26.6 85.666029258227 44379.711749056 2147612.2394515
541	101206976 4798 307169 355642 69.173210679003 79.951975529886 129 0 26.051159770494 1778.5922221975 41109.057814137
540	101211774 3727 307169 355642 69.173210679003 79.951975529886 129 0 4 117 223
542	101215501 3727 307169 355642 69.173210679003 79.951975529886 129 0 0 0 0
544	101219228 3727 307169 355642 69.173210679003 79.951975529886 129 0 3 251 599
543	101222955 3829 307169 355642 69.173210679003 79.951975529886 129 7 20 1563 20191
239	101226784 20917 306882 355818 68.93 80 1108 0 0 0 0
238	101247701 20917 306882 355818 68.93 80 1108 0 0 0 0
419	101268618 35548 306882 355818 68.93 80 1108 0.23221820128778 9.7287830794117 4490.062076122 23773.688320733
418	101304166 37978 306882 355818 68.93 80 1108 -2.1626488009314 1.1752886663963 87.695722472183 361.65121686906
299	101342144 36307 306882 355818 68.93 80 1108 22.242346948509 23.115959417924 25043.121163265 566102.27208199
237	101378451 36306 306882 355818 68.93 80 1108 98.614028927758 325.54433027247 228126.40444353 51756441.499605
236	101414757 31178 306882 355818 68.93 80 1108 408.40342256799 478.66 511624.90047826 236807736.45792

