version 2
run Default-0-20201004-14:23:52-29218
attr configname Default
attr datetime 20201004-14:23:52
attr experiment Default
attr inifile omnetpp.ini
attr iterationvars ""
attr iterationvarsf ""
attr measurement ""
attr network Scenario
attr processid 29218
attr repetition 0
attr replication #0
attr resultdir results
attr runnumber 0
attr seedset 0
param *.playgroundSizeX 2500m
param *.playgroundSizeY 2500m
param *.playgroundSizeZ 50m
param *.annotations.draw true
param *.obstacles.debug false
param *.world.useTorus false
param *.world.use2D false
param *.traciScenarioManager.updateInterval 0.01s
param *.traciScenarioManager.host "\"localhost\""
param *.traciScenarioManager.port 9999
param *.traciScenarioManager.autoShutdown true
param *.traciScenarioManager.launchConfig "xmldoc(\"ring.launchd.xml\")"
param *.traciScenarioManager.configFile "\"ring.sumo.cfg\""
param *.connectionManager.sendDirect true
param *.connectionManager.maxInterfDist 2600m
param *.connectionManager.drawMaxIntfDist false
param *.**.nic.mac1609_4.useServiceChannel false
param *.**.nic.mac1609_4.txPower 20mW
param *.**.nic.mac1609_4.bitrate 6Mbps
param *.**.nic.phy80211p.minPowerLevel -110dBm
param *.**.nic.phy80211p.useNoiseFloor true
param *.**.nic.phy80211p.noiseFloor -98dBm
param *.**.nic.phy80211p.decider "xmldoc(\"config.xml\")"
param *.**.nic.phy80211p.analogueModels "xmldoc(\"config.xml\")"
param *.**.nic.phy80211p.usePropagationDelay true
param *.**.nic.phy80211p.antenna "xmldoc(\"antenna.xml\", \"/root/Antenna[@id='monopole']\")"
param *.node[*].nic.phy80211p.antennaOffsetY "0 m"
param *.node[*].nic.phy80211p.antennaOffsetZ "1.895 m"
param *.node[*].applType "\"ApplicationLayerTest\""
param *.node[*].appl.headerLength "80 bit"
param *.node[*].appl.sendBeacons true
param *.node[*].appl.dataOnSch false
param *.node[*].appl.beaconInterval 1s
param *.node[*].veinsmobility.x 0
param *.node[*].veinsmobility.y 0
param *.node[*].veinsmobility.z 0
param *.node[*].veinsmobility.setHostSpeed false
param *.node[0].veinsmobility.accidentCount 1
param *.node[0].veinsmobility.accidentStart 5s
param *.node[0].veinsmobility.accidentDuration 50s

vector 0 Scenario.node[0].veinsmobility posx ETV
vector 1 Scenario.node[0].veinsmobility posy ETV
vector 2 Scenario.node[0].veinsmobility speed ETV
vector 3 Scenario.node[0].veinsmobility acceleration ETV
vector 4 Scenario.node[0].veinsmobility co2emission ETV
vector 5 Scenario.node[1].veinsmobility posx ETV
vector 6 Scenario.node[1].veinsmobility posy ETV
vector 7 Scenario.node[1].veinsmobility speed ETV
vector 8 Scenario.node[1].veinsmobility acceleration ETV
vector 9 Scenario.node[1].veinsmobility co2emission ETV
vector 10 Scenario.node[2].veinsmobility posx ETV
vector 11 Scenario.node[2].veinsmobility posy ETV
vector 12 Scenario.node[3].veinsmobility posx ETV
vector 13 Scenario.node[3].veinsmobility posy ETV
vector 14 Scenario.node[2].veinsmobility speed ETV
vector 15 Scenario.node[2].veinsmobility acceleration ETV
vector 16 Scenario.node[2].veinsmobility co2emission ETV
vector 17 Scenario.node[3].veinsmobility speed ETV
vector 18 Scenario.node[3].veinsmobility acceleration ETV
vector 19 Scenario.node[3].veinsmobility co2emission ETV
vector 20 Scenario.node[4].veinsmobility posx ETV
vector 21 Scenario.node[4].veinsmobility posy ETV
vector 22 Scenario.node[5].veinsmobility posx ETV
vector 23 Scenario.node[5].veinsmobility posy ETV
vector 24 Scenario.node[4].veinsmobility speed ETV
vector 25 Scenario.node[4].veinsmobility acceleration ETV
vector 26 Scenario.node[4].veinsmobility co2emission ETV
vector 27 Scenario.node[5].veinsmobility speed ETV
vector 28 Scenario.node[5].veinsmobility acceleration ETV
vector 29 Scenario.node[5].veinsmobility co2emission ETV
0	2	0.01	191.15880186412
0	3	0.02	191.15880186412
0	4	0.03	190.36050424704
0	5	0.04	190.06394107315
0	6	0.05	189.76704345875
0	7	0.06	189.46981031312
0	8	0.07	189.17224235127
0	9	0.08	188.87434028908
0	10	0.09	188.57610484334
0	11	0.1	188.27753673168
0	12	0.11	187.97863667262
0	13	0.12	187.67940538551
0	14	0.13	187.37984359052
0	15	0.14	187.07995200868
0	16	0.15	186.77973136178
0	17	0.16	186.47918237246
0	18	0.17	186.1783057641
0	19	0.18	185.87710226088
0	20	0.19	185.57557258773
0	21	0.2	185.27371747033
0	22	0.21	184.97153763511
0	23	0.22	184.6690338092
0	24	0.23	184.36620672046
0	25	0.24	184.06305709744
0	26	0.25	183.75958566939
0	27	0.26	183.45579316621
0	28	0.27	183.15168031849
0	29	0.28	182.84724785745
0	30	0.29	182.54249651496
0	31	0.3	182.2374270235
0	32	0.31	181.93204011618
0	33	0.32	181.6263365267
0	34	0.33	181.32031698935
0	35	0.34	181.013982239
0	36	0.35	180.70733301106
0	37	0.36	180.40037004153
0	38	0.37	180.0930940669
0	39	0.38	179.78550582422
0	40	0.39	179.47760605105
0	41	0.4	179.16939548543
0	42	0.41	178.8608748659
0	43	0.42	178.55204493147
0	44	0.43	178.24290642163
0	45	0.44	177.93346007628
0	46	0.45	177.6237066358
0	47	0.46	177.31364684097
0	48	0.47	177.00328143299
0	49	0.48	176.69261115345
0	50	0.49	176.38163674433
0	51	0.5	176.07035894799
0	52	0.51	175.75877850715
0	53	0.52	175.44689616488
0	54	0.53	175.13471266457
0	55	0.54	174.82222874996
0	56	0.55	174.50944516507
0	57	0.56	174.19636265425
0	58	0.57	173.88298196211
0	59	0.58	173.56930383354
0	60	0.59	173.25532901371
0	61	0.6	172.94105824801
0	62	0.61	172.62649228208
0	63	0.62	172.31163186178
0	64	0.63	171.99647773318
0	65	0.64	171.68103064255
0	66	0.65	171.36529133634
0	67	0.66	171.04926056118
0	68	0.67	170.73293906385
0	69	0.68	170.41632759129
0	70	0.69	170.09942689057
0	71	0.7	169.78223770888
0	72	0.71	169.46476079353
0	73	0.72	169.14699689191
0	74	0.73	168.82894675151
0	75	0.74	168.51061111989
0	76	0.75	168.19199074467
0	77	0.76	167.87308637352
0	78	0.77	167.55389875414
0	79	0.78	167.23442863427
0	80	0.79	166.91467676164
0	81	0.8	166.59464388399
0	82	0.81	166.27433074905
0	83	0.82	165.95373810452
0	84	0.83	165.63286669807
0	85	0.84	165.3117172773
0	86	0.85	164.99029058977
0	102	0.86	164.67187069798
0	103	0.87	164.38139826048
0	104	0.88	164.0906777103
0	105	0.89	163.79970972152
0	106	0.9	163.50849496809
0	107	0.91	163.21703412386
0	108	0.92	162.92532786253
0	109	0.93	162.63337685766
0	125	0.94	162.34118178267
0	126	0.95	162.0487433108
0	127	0.96	161.75606211512
0	128	0.97	161.46313886851
0	129	0.98	161.16997424368
0	130	0.99	160.87656891309
0	131	1	160.58292354901
0	132	1.01	160.28903882348
0	133	1.02	159.99491540831
0	134	1.03	159.70055397503
0	135	1.04	159.40595519495
0	136	1.05	159.11111973907
0	137	1.06	158.81604827815
0	138	1.07	158.52074148263
0	139	1.08	158.22520002265
0	140	1.09	157.92942456807
0	141	1.1	157.63341578839
0	142	1.11	157.33717435281
0	143	1.12	157.04070093016
0	144	1.13	156.74399618893
0	145	1.14	156.44706079726
0	146	1.15	156.1498954229
0	147	1.16	155.85250073323
0	148	1.17	155.55487739523
0	149	1.18	155.25702607548
0	150	1.19	154.95894744016
0	151	1.2	154.660642155
0	152	1.21	154.36211088533
0	153	1.22	154.06335429602
0	154	1.23	153.76437305149
0	155	1.24	153.4651678157
0	156	1.25	153.16573925215
0	157	1.26	152.86608802385
0	158	1.27	152.56621479332
0	159	1.28	152.26612022258
0	160	1.29	151.96580497315
0	161	1.3	151.66526970602
0	162	1.31	151.36451508166
0	163	1.32	151.06354175999
0	164	1.33	150.76235040041
0	165	1.34	150.46094166175
0	166	1.35	150.15931620226
0	167	1.36	149.85747467963
0	168	1.37	149.55541775098
0	169	1.38	149.25314607282
0	170	1.39	148.95066030106
0	171	1.4	148.647961091
0	172	1.41	148.34504909733
0	173	1.42	148.0419249741
0	174	1.43	147.73858937473
0	175	1.44	147.43504295199
0	176	1.45	147.13128635801
0	177	1.46	146.82732024423
0	178	1.47	146.52314526144
0	179	1.48	146.21876205974
0	180	1.49	145.91417128854
0	181	1.5	145.60937359657
0	182	1.51	145.30436963183
0	183	1.52	144.99916004161
0	184	1.53	144.69374547248
0	185	1.54	144.3881265703
0	186	1.55	144.08230398016
0	187	1.56	143.77627834641
0	188	1.57	143.47005031265
0	189	1.58	143.16362052172
0	190	1.59	142.85698961569
0	191	1.6	142.55015823582
0	192	1.61	142.24312702263
0	193	1.62	141.9358966158
0	194	1.63	141.62846765424
0	195	1.64	141.32084077603
0	196	1.65	141.01301661844
0	197	1.66	140.7049958179
0	198	1.67	140.39677901002
0	199	1.68	140.08836682956
0	200	1.69	139.77975991044
0	201	1.7	139.47095888571
0	202	1.71	139.16196438756
0	203	1.72	138.85277704732
0	204	1.73	138.54339749543
0	205	1.74	138.23382636145
0	206	1.75	137.92406427403
0	207	1.76	137.61411186094
0	208	1.77	137.30396974904
0	209	1.78	136.99363856426
0	210	1.79	136.68311893162
0	211	1.8	136.37241147522
0	212	1.81	136.06151681821
0	213	1.82	135.7504355828
0	214	1.83	135.43916839026
0	215	1.84	135.1277158609
0	216	1.85	134.81607861405
0	244	1.86	134.50425726812
0	245	1.87	134.19225244049
0	246	1.88	133.88006474758
0	247	1.89	133.56769480484
0	248	1.9	133.25514322671
0	249	1.91	132.94241062661
0	250	1.92	132.62949761699
0	251	1.93	132.31640480926
0	279	1.94	132.00313281383
0	280	1.95	131.68968224006
0	281	1.96	131.37605369631
0	282	1.97	131.06224778988
0	283	1.98	130.74826512704
0	284	1.99	130.434106313
0	285	2	130.11977195192
0	286	2.01	129.8052626469
0	287	2.02	129.49057899998
0	288	2.03	129.17572161212
0	289	2.04	128.8606910832
0	290	2.05	128.54548801204
0	291	2.06	128.23011299635
0	319	2.07	127.91456663274
0	320	2.08	127.59884951675
0	321	2.09	127.28296224279
0	322	2.1	126.96690540417
0	323	2.11	126.6506795931
0	324	2.12	126.33428540064
0	325	2.13	126.01772341675
0	326	2.14	125.70099423026
0	327	2.15	125.38409842886
0	328	2.16	125.06703659909
0	356	2.17	124.74980932636
0	357	2.18	124.43241719493
0	358	2.19	124.11486078791
0	359	2.2	123.79714068724
0	360	2.21	123.4792574737
0	361	2.22	123.16121172692
0	362	2.23	122.84300402533
0	363	2.24	122.52463494622
0	364	2.25	122.20610506566
0	365	2.26	121.88741495857
0	366	2.27	121.56856519866
0	367	2.28	121.24955635845
0	368	2.29	120.93038900927
0	369	2.3	120.61106372124
0	370	2.31	120.2915810633
0	371	2.32	119.97194160314
0	372	2.33	119.65214590726
0	373	2.34	119.33219454095
0	374	2.35	119.01208806826
0	375	2.36	118.69182705204
0	376	2.37	118.37141205389
0	377	2.38	118.05084363418
0	378	2.39	117.73012235207
0	379	2.4	117.40924876544
0	380	2.41	117.08822343096
0	381	2.42	116.76704690405
0	382	2.43	116.44571973887
0	383	2.44	116.12424248833
0	384	2.45	115.80261570409
0	385	2.46	115.48083993656
0	386	2.47	115.15891573486
0	387	2.48	114.83684364686
0	388	2.49	114.51462421918
0	389	2.5	114.19225799715
0	390	2.51	113.86974552482
0	391	2.52	113.54708734497
0	392	2.53	113.22428399912
0	393	2.54	112.90133602747
0	394	2.55	112.57824396897
0	395	2.56	112.25500836125
0	396	2.57	111.93162974069
0	397	2.58	111.60810864233
0	398	2.59	111.28444559996
0	399	2.6	110.96064114603
0	400	2.61	110.63669581173
0	401	2.62	110.31261012691
0	402	2.63	110.05198233497
0	403	2.64	109.7945670985
0	404	2.65	109.53704173544
0	405	2.66	109.27940666212
0	406	2.67	109.02166229387
0	407	2.68	108.76380904494
0	408	2.69	108.50584732855
0	409	2.7	108.24777755686
0	410	2.71	107.989600141
0	411	2.72	107.73131549103
0	412	2.73	107.47292401597
0	413	2.74	107.21442612378
0	414	2.75	106.95582222138
0	415	2.76	106.69711271461
0	416	2.77	106.43829800827
0	417	2.78	106.1793785061
0	418	2.79	105.92035461079
0	419	2.8	105.66122672393
0	420	2.81	105.4019952461
0	421	2.82	105.14266057677
0	422	2.83	104.88322311439
0	423	2.84	104.6236832563
0	424	2.85	104.36404139882
0	452	2.86	104.10429793716
0	453	2.87	103.84445326548
0	454	2.88	103.58450777689
0	455	2.89	103.3244618634
0	456	2.9	103.06431591596
0	457	2.91	102.80407032446
0	458	2.92	102.5437254777
0	459	2.93	102.28328176342
0	487	2.94	102.02273956827
0	488	2.95	101.76209927785
0	489	2.96	101.50136127667
0	490	2.97	101.24052594817
0	491	2.98	100.9795936747
0	492	2.99	100.71856483756
0	493	3	100.45743981695
0	494	3.01	100.19621899199
0	495	3.02	99.934902740756
0	496	3.03	99.673491440208
0	497	3.04	99.411985466247
0	498	3.05	99.150385193689
0	499	3.06	98.888690996273
0	533	3.07	98.62690324666
0	534	3.08	98.365022316428
0	535	3.09	98.103048576078
0	536	3.1	97.840982395031
0	537	3.11	97.578824141627
0	538	3.12	97.316574183127
0	539	3.13	97.05423288571
0	540	3.14	96.791800614478
0	541	3.15	96.52927773345
0	542	3.16	96.266664605567
0	621	3.17	96.003961592688
0	622	3.18	95.741169055593
0	623	3.19	95.478287353984
0	624	3.2	95.21531684648
0	664	3.21	94.952257890623
0	665	3.22	94.689110842874
0	666	3.23	94.425876058617
0	667	3.24	94.162553892156
0	668	3.25	93.899144696716
0	669	3.26	93.635648824444
0	670	3.27	93.372066626411
0	671	3.28	93.108398452609
0	672	3.29	92.844644651953
0	673	3.3	92.580805572281
0	674	3.31	92.316881560356
0	675	3.32	92.052872961865
0	676	3.33	91.78878012142
0	677	3.34	91.524603382557
0	678	3.35	91.26034308774
0	679	3.36	90.995999578359
0	680	3.37	90.73157319473
0	681	3.38	90.467064276097
0	682	3.39	90.202473160635
0	683	3.4	89.937800185445
1	2	0.01	411.5436352633
1	3	0.02	411.5436352633
1	4	0.03	414.65702871189
1	5	0.04	414.61000089729
1	6	0.05	414.56292004845
1	7	0.06	414.51578599238
1	8	0.07	414.46859884249
1	9	0.08	414.42135871228
1	10	0.09	414.37406571544
1	11	0.1	414.32671996574
1	12	0.11	414.27932157714
1	13	0.12	414.23187066371
1	14	0.13	414.18436733965
1	15	0.14	414.13681171929
1	16	0.15	414.0892039171
1	17	0.16	414.04154404766
1	18	0.17	413.9938322257
1	19	0.18	413.94606856604
1	20	0.19	413.89825318364
1	21	0.2	413.85038619359
1	22	0.21	413.80246771106
1	23	0.22	413.75449785138
1	24	0.23	413.70647672995
1	25	0.24	413.65840446232
1	26	0.25	413.61028116411
1	27	0.26	413.56210695109
1	28	0.27	413.51388193909
1	29	0.28	413.46560624408
1	30	0.29	413.41727998211
1	31	0.3	413.36890326933
1	32	0.31	413.320476222
1	33	0.32	413.27199895647
1	34	0.33	413.22347158918
1	35	0.34	413.17489423665
1	36	0.35	413.12626701552
1	37	0.36	413.07759004248
1	38	0.37	413.02886343434
1	39	0.38	412.98008730796
1	40	0.39	412.93126178031
1	41	0.4	412.88238696842
1	42	0.41	412.83346298942
1	43	0.42	412.78448996047
1	44	0.43	412.73546799886
1	45	0.44	412.68639722192
1	46	0.45	412.63727774704
1	47	0.46	412.58810969171
1	48	0.47	412.53889317344
1	49	0.48	412.48962830986
1	50	0.49	412.4403152186
1	51	0.5	412.39095401741
1	52	0.51	412.34154482404
1	53	0.52	412.29208775635
1	54	0.53	412.2425829322
1	55	0.54	412.19303046954
1	56	0.55	412.14343048635
1	57	0.56	412.09378310067
1	58	0.57	412.04408843058
1	59	0.58	411.9943465942
1	60	0.59	411.94455770969
1	61	0.6	411.89472189525
1	62	0.61	411.84483926913
1	63	0.62	411.79490994961
1	64	0.63	411.74493405498
1	65	0.64	411.69491170359
1	66	0.65	411.64484301381
1	67	0.66	411.59472810404
1	68	0.67	411.5445670927
1	69	0.68	411.49436009824
1	70	0.69	411.44410723911
1	71	0.7	411.39380863382
1	72	0.71	411.34346440086
1	73	0.72	411.29307465875
1	74	0.73	411.24263952603
1	75	0.74	411.19215912125
1	76	0.75	411.14163356294
1	77	0.76	411.09106296969
1	78	0.77	411.04044746006
1	79	0.78	410.98978715261
1	80	0.79	410.93908216593
1	81	0.8	410.88833261859
1	82	0.81	410.83753862915
1	83	0.82	410.78670031618
1	84	0.83	410.73581779826
1	85	0.84	410.68489119392
1	86	0.85	410.63392062172
1	102	0.86	410.57280412923
1	103	0.87	410.42480696474
1	104	0.88	410.2766833856
1	105	0.89	410.12843373524
1	106	0.9	409.98005835707
1	107	0.91	409.83155759439
1	108	0.92	409.68293179047
1	109	0.93	409.53418128849
1	125	0.94	409.38530643156
1	126	0.95	409.2363075627
1	127	0.96	409.08718502483
1	128	0.97	408.93793916081
1	129	0.98	408.78857031337
1	130	0.99	408.63907882513
1	131	1	408.48946503864
1	132	1.01	408.33972929628
1	133	1.02	408.18987194034
1	134	1.03	408.039893313
1	135	1.04	407.88979375626
1	136	1.05	407.73957361201
1	137	1.06	407.58923322201
1	138	1.07	407.43877292786
1	139	1.08	407.28819307099
1	140	1.09	407.13749399268
1	141	1.1	406.98667603408
1	142	1.11	406.83573953612
1	143	1.12	406.68468483958
1	144	1.13	406.53351228508
1	145	1.14	406.38222221301
1	146	1.15	406.23081496361
1	147	1.16	406.0792908769
1	148	1.17	405.92765029273
1	149	1.18	405.77589355071
1	150	1.19	405.62402099027
1	151	1.2	405.47203295059
1	152	1.21	405.31992977068
1	153	1.22	405.16771178927
1	154	1.23	405.01537934491
1	155	1.24	404.86293277587
1	156	1.25	404.71037242022
1	157	1.26	404.55769861576
1	158	1.27	404.40491170006
1	159	1.28	404.2520120104
1	160	1.29	404.09899988384
1	161	1.3	403.94587565717
1	162	1.31	403.79263966688
1	163	1.32	403.63929224922
1	164	1.33	403.48583374014
1	165	1.34	403.33226447533
1	166	1.35	403.17858479018
1	167	1.36	403.02479501977
1	168	1.37	402.87089549891
1	169	1.38	402.7168865621
1	170	1.39	402.56276854353
1	171	1.4	402.40854177707
1	172	1.41	402.25420659629
1	173	1.42	402.09976333444
1	174	1.43	401.94521232443
1	175	1.44	401.79055389886
1	176	1.45	401.63578838999
1	177	1.46	401.48091612973
1	178	1.47	401.32593744966
1	179	1.48	401.17085268101
1	180	1.49	401.01566215466
1	181	1.5	400.86036620113
1	182	1.51	400.7049651506
1	183	1.52	400.54945933285
1	184	1.53	400.39384907732
1	185	1.54	400.23813471307
1	186	1.55	400.08231656879
1	187	1.56	399.92639497277
1	188	1.57	399.77037025293
1	189	1.58	399.6142427368
1	190	1.59	399.45801275151
1	191	1.6	399.3016806238
1	192	1.61	399.14524668001
1	193	1.62	398.98871124606
1	194	1.63	398.83207464747
1	195	1.64	398.67533720937
1	196	1.65	398.51849925642
1	197	1.66	398.36156111291
1	198	1.67	398.20452310267
1	199	1.68	398.04738554913
1	200	1.69	397.89014877526
1	201	1.7	397.7328131036
1	202	1.71	397.57537885628
1	203	1.72	397.41784635493
1	204	1.73	397.26021592079
1	205	1.74	397.10248787461
1	206	1.75	396.94466253669
1	207	1.76	396.78674022689
1	208	1.77	396.6287212646
1	209	1.78	396.47060596872
1	210	1.79	396.31239465772
1	211	1.8	396.15408764956
1	212	1.81	395.99568526176
1	213	1.82	395.83718781132
1	214	1.83	395.67859561479
1	215	1.84	395.51990898822
1	216	1.85	395.36112824717
1	244	1.86	395.20225370671
1	245	1.87	395.0432856814
1	246	1.88	394.88422448532
1	247	1.89	394.72507043204
1	248	1.9	394.5658238346
1	249	1.91	394.40648500557
1	250	1.92	394.24705425698
1	251	1.93	394.08753190036
1	279	1.94	393.9279182467
1	280	1.95	393.76821360648
1	281	1.96	393.60841828966
1	282	1.97	393.44853260567
1	283	1.98	393.2885568634
1	284	1.99	393.12849137121
1	285	2	392.96833643692
1	286	2.01	392.80809236781
1	287	2.02	392.64775947064
1	288	2.03	392.48733805158
1	289	2.04	392.32682841629
1	290	2.05	392.16623086985
1	291	2.06	392.00554571681
1	319	2.07	391.84477326116
1	320	2.08	391.6839138063
1	321	2.09	391.52296765511
1	322	2.1	391.36193510987
1	323	2.11	391.20081647232
1	324	2.12	391.03961204361
1	325	2.13	390.87832212432
1	326	2.14	390.71694701447
1	327	2.15	390.55548701348
1	328	2.16	390.39394242021
1	356	2.17	390.23231353292
1	357	2.18	390.07060064929
1	358	2.19	389.90880406643
1	359	2.2	389.74692408083
1	360	2.21	389.5849609884
1	361	2.22	389.42291508447
1	362	2.23	389.26078666376
1	363	2.24	389.09857602039
1	364	2.25	388.93628344787
1	365	2.26	388.77390923913
1	366	2.27	388.61145368648
1	367	2.28	388.44891708162
1	368	2.29	388.28629971564
1	369	2.3	388.12360187903
1	370	2.31	387.96082386166
1	371	2.32	387.79796595277
1	372	2.33	387.63502844099
1	373	2.34	387.47201161435
1	374	2.35	387.30891576024
1	375	2.36	387.14574116541
1	376	2.37	386.98248811602
1	377	2.38	386.81915689758
1	378	2.39	386.65574779498
1	379	2.4	386.49226109246
1	380	2.41	386.32869707365
1	381	2.42	386.16505602154
1	382	2.43	386.00133821847
1	383	2.44	385.83754394616
1	384	2.45	385.67367348568
1	385	2.46	385.50972711746
1	386	2.47	385.34570512129
1	387	2.48	385.18160777631
1	388	2.49	385.01743536102
1	389	2.5	384.85318815327
1	390	2.51	384.68886643026
1	391	2.52	384.52447046854
1	392	2.53	384.36000054401
1	393	2.54	384.19545693192
1	394	2.55	384.03083990685
1	395	2.56	383.86614974273
1	396	2.57	383.70138671285
1	397	2.58	383.53655108982
1	398	2.59	383.3716431456
1	399	2.6	383.20666315149
1	400	2.61	383.04161137812
1	401	2.62	382.87648809545
1	402	2.63	382.62375733497
1	403	2.64	382.3663420985
1	404	2.65	382.10881673544
1	405	2.66	381.85118166212
1	406	2.67	381.59343729387
1	407	2.68	381.33558404494
1	408	2.69	381.07762232855
1	409	2.7	380.81955255686
1	410	2.71	380.561375141
1	411	2.72	380.30309049103
1	412	2.73	380.04469901597
1	413	2.74	379.78620112378
1	414	2.75	379.52759722138
1	415	2.76	379.26888771461
1	416	2.77	379.01007300827
1	417	2.78	378.7511535061
1	418	2.79	378.49212961079
1	419	2.8	378.23300172393
1	420	2.81	377.9737702461
1	421	2.82	377.71443557677
1	422	2.83	377.45499811439
1	423	2.84	377.1954582563
1	424	2.85	376.93581639882
1	452	2.86	376.67607293716
1	453	2.87	376.41622826548
1	454	2.88	376.15628277689
1	455	2.89	375.8962368634
1	456	2.9	375.63609091596
1	457	2.91	375.37584532446
1	458	2.92	375.1155004777
1	459	2.93	374.85505676342
1	487	2.94	374.59451456827
1	488	2.95	374.33387427785
1	489	2.96	374.07313627667
1	490	2.97	373.81230094817
1	491	2.98	373.5513686747
1	492	2.99	373.29033983756
1	493	3	373.02921481695
1	494	3.01	372.76799399199
1	495	3.02	372.50667774076
1	496	3.03	372.24526644021
1	497	3.04	371.98376046625
1	498	3.05	371.72216019369
1	499	3.06	371.46046599627
1	533	3.07	371.19867824666
1	534	3.08	370.93679731643
1	535	3.09	370.67482357608
1	536	3.1	370.41275739503
1	537	3.11	370.15059914163
1	538	3.12	369.88834918313
1	539	3.13	369.62600788571
1	540	3.14	369.36357561448
1	541	3.15	369.10105273345
1	542	3.16	368.83843960557
1	621	3.17	368.57573659269
1	622	3.18	368.31294405559
1	623	3.19	368.05006235398
1	624	3.2	367.78709184648
1	664	3.21	367.52403289062
1	665	3.22	367.26088584287
1	666	3.23	366.99765105862
1	667	3.24	366.73432889216
1	668	3.25	366.47091969672
1	669	3.26	366.20742382444
1	670	3.27	365.94384162641
1	671	3.28	365.68017345261
1	672	3.29	365.41641965195
1	673	3.3	365.15258057228
1	674	3.31	364.88865656036
1	675	3.32	364.62464796187
1	676	3.33	364.36055512142
1	677	3.34	364.09637838256
1	678	3.35	363.83211808774
1	679	3.36	363.56777457836
1	680	3.37	363.30334819473
1	681	3.38	363.0388392761
1	682	3.39	362.77424816064
1	683	3.4	362.50957518544
2	3	0.02	30.034179687497
2	4	0.03	30.067922160803
2	5	0.04	30.101958087686
2	6	0.05	30.13592160846
2	7	0.06	30.16981263192
2	8	0.07	30.203631068072
2	9	0.08	30.237376828134
2	10	0.09	30.271049824545
2	11	0.1	30.304649970962
2	12	0.11	30.338177182264
2	13	0.12	30.371631374558
2	14	0.13	30.40501246518
2	15	0.14	30.438320372695
2	16	0.15	30.471555016905
2	17	0.16	30.504716318846
2	18	0.17	30.537804200794
2	19	0.18	30.570818586266
2	20	0.19	30.603759400025
2	21	0.2	30.636626568075
2	22	0.21	30.669420017673
2	23	0.22	30.702139677323
2	24	0.23	30.734785476782
2	25	0.24	30.767357347061
2	26	0.25	30.799855220426
2	27	0.26	30.832279030403
2	28	0.27	30.864628711773
2	29	0.28	30.896904200583
2	30	0.29	30.929105434138
2	31	0.3	30.961232351009
2	32	0.31	30.993284891032
2	33	0.32	31.02526299531
2	34	0.33	31.057166606212
2	35	0.34	31.088995667377
2	36	0.35	31.120750123715
2	37	0.36	31.152429921406
2	38	0.37	31.1840350079
2	39	0.38	31.215565331924
2	40	0.39	31.247020843474
2	41	0.4	31.278401493822
2	42	0.41	31.309707235517
2	43	0.42	31.34093802238
2	44	0.43	31.372093809508
2	45	0.44	31.403174553277
2	46	0.45	31.434180211336
2	47	0.46	31.465110742614
2	48	0.47	31.495966107314
2	49	0.48	31.526746266917
2	50	0.49	31.557451184181
2	51	0.5	31.588080823141
2	52	0.51	31.618635149109
2	53	0.52	31.649114128673
2	54	0.53	31.679517729696
2	55	0.54	31.70984592132
2	56	0.55	31.740098673958
2	57	0.56	31.770275959302
2	58	0.57	31.800377750317
2	59	0.58	31.830404021239
2	60	0.59	31.86035474758
2	61	0.6	31.890229906124
2	62	0.61	31.920029474923
2	63	0.62	31.949753433303
2	64	0.63	31.979401761856
2	65	0.64	32.008974442445
2	66	0.65	32.038471458197
2	67	0.66	32.067892793507
2	68	0.67	32.097238434032
2	69	0.68	32.126508366695
2	70	0.69	32.155702579676
2	71	0.7	32.18482106242
2	72	0.71	32.213863805626
2	73	0.72	32.242830801252
2	74	0.73	32.271722042511
2	75	0.74	32.300537523867
2	76	0.75	32.329277241037
2	77	0.76	32.357941190987
2	78	0.77	32.38652937193
2	79	0.78	32.415041783324
2	80	0.79	32.44347842587
2	81	0.8	32.47183930151
2	82	0.81	32.500124413424
2	83	0.82	32.528333766029
2	84	0.83	32.556467364974
2	85	0.84	32.584525217142
2	86	0.85	32.612507330641
2	102	0.86	32.640413714809
2	103	0.87	32.668244380204
2	104	0.88	32.695999338606
2	105	0.89	32.723678603014
2	106	0.9	32.75128218764
2	107	0.91	32.778810107909
2	108	0.92	32.806262380455
2	109	0.93	32.833639023118
2	125	0.94	32.86094005494
2	126	0.95	32.888165496163
2	127	0.96	32.915315368227
2	128	0.97	32.942389693763
2	129	0.98	32.969388496593
2	130	0.99	32.996311801725
2	131	1	33.023159635351
2	132	1.01	33.049932024839
2	133	1.02	33.076628998738
2	134	1.03	33.103250586764
2	135	1.04	33.129796819804
2	136	1.05	33.156267729911
2	137	1.06	33.182663350295
2	138	1.07	33.208983715327
2	139	1.08	33.235228860529
2	140	1.09	33.261398822571
2	141	1.1	33.287493639272
2	142	1.11	33.313513349588
2	143	1.12	33.339457993613
2	144	1.13	33.365327612575
2	145	1.14	33.39112224883
2	146	1.15	33.416841945856
2	147	1.16	33.442486748254
2	148	1.17	33.468056701738
2	149	1.18	33.493551853135
2	150	1.19	33.518972250377
2	151	1.2	33.544317942499
2	152	1.21	33.569588979633
2	153	1.22	33.594785413004
2	154	1.23	33.619907294924
2	155	1.24	33.644954678791
2	156	1.25	33.669927619079
2	157	1.26	33.694826171337
2	158	1.27	33.719650392184
2	159	1.28	33.744400339302
2	160	1.29	33.769076071432
2	161	1.3	33.79367764837
2	162	1.31	33.818205130961
2	163	1.32	33.842658581095
2	164	1.33	33.867038061699
2	165	1.34	33.891343636737
2	166	1.35	33.915575371198
2	167	1.36	33.939733331098
2	168	1.37	33.96381758347
2	169	1.38	33.98782819636
2	170	1.39	34.011765238821
2	171	1.4	34.035628780911
2	172	1.41	34.059418893682
2	173	1.42	34.08313564918
2	174	1.43	34.106779120435
2	175	1.44	34.130349381458
2	176	1.45	34.153846507237
2	177	1.46	34.177270573729
2	178	1.47	34.200621657852
2	179	1.48	34.223899837486
2	180	1.49	34.247105191462
2	181	1.5	34.270237799559
2	182	1.51	34.293297742496
2	183	1.52	34.316285101928
2	184	1.53	34.33919996044
2	185	1.54	34.362042401542
2	186	1.55	34.38481250966
2	187	1.56	34.407510370135
2	188	1.57	34.430136069211
2	189	1.58	34.452689694037
2	190	1.59	34.475171332653
2	191	1.6	34.49758107399
2	192	1.61	34.51991900786
2	193	1.62	34.542185224952
2	194	1.63	34.564379816829
2	195	1.64	34.586502875913
2	196	1.65	34.608554495491
2	197	1.66	34.630534769697
2	198	1.67	34.652443793515
2	199	1.68	34.674281662768
2	200	1.69	34.696048474115
2	201	1.7	34.71774432504
2	202	1.71	34.739369313852
2	203	1.72	34.760923539674
2	204	1.73	34.78240710244
2	205	1.74	34.803820102886
2	206	1.75	34.825162642546
2	207	1.76	34.846434823745
2	208	1.77	34.867636749592
2	209	1.78	34.888768523974
2	210	1.79	34.909830251553
2	211	1.8	34.930822037753
2	212	1.81	34.95174398876
2	213	1.82	34.972596211512
2	214	1.83	34.993378813695
2	215	1.84	35.014091903735
2	216	1.85	35.034735590791
2	244	1.86	35.055309984753
2	245	1.87	35.075815196229
2	246	1.88	35.096251336545
2	247	1.89	35.116618517733
2	248	1.9	35.13691685253
2	249	1.91	35.157146454367
2	250	1.92	35.177307437367
2	251	1.93	35.197399916332
2	279	1.94	35.217424006746
2	280	1.95	35.23737982476
2	281	1.96	35.25726748719
2	282	1.97	35.27708711151
2	283	1.98	35.296838815843
2	284	1.99	35.31652271896
2	285	2	35.336138940268
2	286	2.01	35.355687599807
2	287	2.02	35.375168818243
2	288	2.03	35.394582716858
2	289	2.04	35.413929417552
2	290	2.05	35.433209042825
2	291	2.06	35.452421715783
2	319	2.07	35.471567560121
2	320	2.08	35.490646700123
2	321	2.09	35.509659260653
2	322	2.1	35.52860536715
2	323	2.11	35.547485145619
2	324	2.12	35.566298722629
2	325	2.13	35.585046225302
2	326	2.14	35.60372778131
2	327	2.15	35.622343518866
2	328	2.16	35.64089356672
2	356	2.17	35.659378054151
2	357	2.18	35.677797110962
2	358	2.19	35.696150867471
2	359	2.2	35.714439454509
2	360	2.21	35.732663003409
2	361	2.22	35.750821646004
2	362	2.23	35.768915514616
2	363	2.24	35.786944742055
2	364	2.25	35.804909461607
2	365	2.26	35.822809807034
2	366	2.27	35.840645912561
2	367	2.28	35.858417912876
2	368	2.29	35.876125943118
2	369	2.3	35.893770138877
2	370	2.31	35.911350636183
2	371	2.32	35.928867571499
2	372	2.33	35.946321081721
2	373	2.34	35.963711304165
2	374	2.35	35.981038376565
2	375	2.36	35.998302437064
2	376	2.37	36.015503624211
2	377	2.38	36.032642076953
2	378	2.39	36.049717934629
2	379	2.4	36.066731336964
2	380	2.41	36.083682424062
2	381	2.42	36.100571336402
2	382	2.43	36.117398214831
2	383	2.44	36.134163200557
2	384	2.45	36.150866435146
2	385	2.46	36.16750806051
2	386	2.47	36.184088218909
2	387	2.48	36.200607052938
2	388	2.49	36.217064705524
2	389	2.5	36.233461319923
2	390	2.51	36.249797039709
2	391	2.52	36.266072008769
2	392	2.53	36.282286371301
2	393	2.54	36.298440271805
2	394	2.55	36.314533855076
2	395	2.56	36.330567266202
2	396	2.57	36.346540650556
2	397	2.58	36.36245415379
2	398	2.59	36.378307921829
2	399	2.6	36.394102100867
2	400	2.61	36.40983683736
2	401	2.62	36.42551227802
2	402	2.63	36.441128569812
2	403	2.64	36.456685859945
2	404	2.65	36.472184295867
2	405	2.66	36.487624025261
2	406	2.67	36.50300519604
2	407	2.68	36.518327956338
2	408	2.69	36.533592454508
2	409	2.7	36.548798839115
2	410	2.71	36.56394725893
2	411	2.72	36.579037862925
2	412	2.73	36.59407080027
2	413	2.74	36.609046220323
2	414	2.75	36.623964272628
2	415	2.76	36.63882510691
2	416	2.77	36.653628873068
2	417	2.78	36.668375721168
2	418	2.79	36.683065801443
2	419	2.8	36.697699264283
2	420	2.81	36.712276260231
2	421	2.82	36.726796939981
2	422	2.83	36.741261454368
2	423	2.84	36.755669954366
2	424	2.85	36.77002259108
2	452	2.86	36.784319515747
2	453	2.87	36.798560879722
2	454	2.88	36.812746834483
2	455	2.89	36.826877531617
2	456	2.9	36.840953122819
2	457	2.91	36.854973759891
2	458	2.92	36.868939594728
2	459	2.93	36.882850779321
2	487	2.94	36.89670746575
2	488	2.95	36.910509806177
2	489	2.96	36.924257952844
2	490	2.97	36.937952058064
2	491	2.98	36.951592274225
2	492	2.99	36.965178753774
2	493	3	36.97871164922
2	494	3.01	36.992191113129
2	495	3.02	37.005617298114
2	496	3.03	37.018990356838
2	497	3.04	37.032310442003
2	498	3.05	37.045577706348
2	499	3.06	37.058792302646
2	533	3.07	37.071954383696
2	534	3.08	37.085064102322
2	535	3.09	37.098121611367
2	536	3.1	37.111127063688
2	537	3.11	37.124080612154
2	538	3.12	37.136982409637
2	539	3.13	37.149832609013
2	540	3.14	37.162631363157
2	541	3.15	37.175378824934
2	542	3.16	37.1880751472
2	621	3.17	37.200720482795
2	622	3.18	37.21331498454
2	623	3.19	37.225858805234
2	624	3.2	37.238352097647
2	664	3.21	37.250795014517
2	665	3.22	37.263187708547
2	666	3.23	37.275530332402
2	667	3.24	37.287823038702
2	668	3.25	37.300065980019
2	669	3.26	37.312259308875
2	670	3.27	37.324403177736
2	671	3.28	37.33649773901
2	672	3.29	37.348543145039
2	673	3.3	37.360539548102
2	674	3.31	37.372487100407
2	675	3.32	37.384385954084
2	676	3.33	37.396236261191
2	677	3.34	37.4080381737
2	678	3.35	37.4197918435
2	679	3.36	37.43149742239
2	680	3.37	37.443155062077
2	681	3.38	37.454764914172
2	682	3.39	37.466327130188
2	683	3.4	37.477841861534
3	4	0.03	3.3742473306219
3	5	0.04	3.4035926882535
3	6	0.05	3.396352077413
3	7	0.06	3.3891023460104
3	8	0.07	3.3818436151563
3	9	0.08	3.374576006274
3	10	0.09	3.3672996410907
3	11	0.1	3.3600146416319
3	12	0.11	3.3527211302129
3	13	0.12	3.3454192294311
3	14	0.13	3.3381090621589
3	15	0.14	3.3307907515361
3	16	0.15	3.3234644209628
3	17	0.16	3.3161301940911
3	18	0.17	3.308788194818
3	19	0.18	3.3014385472772
3	20	0.19	3.2940813758319
3	21	0.2	3.2867168050686
3	22	0.21	3.2793449597861
3	23	0.22	3.2719659649914
3	24	0.23	3.2645799458898
3	25	0.24	3.2571870278787
3	26	0.25	3.2497873365379
3	27	0.26	3.2423809976251
3	28	0.27	3.2349681370647
3	29	0.28	3.2275488809432
3	30	0.29	3.2201233554993
3	31	0.3	3.2126916871174
3	32	0.31	3.2052540023201
3	33	0.32	3.1978104277588
3	34	0.33	3.1903610902084
3	35	0.34	3.1829061165585
3	36	0.35	3.1754456338049
3	37	0.36	3.1679797690437
3	38	0.37	3.1605086494618
3	39	0.38	3.1530324023308
3	40	0.39	3.1455511549982
3	41	0.4	3.1380650348812
3	42	0.41	3.1305741694563
3	43	0.42	3.1230786862551
3	44	0.43	3.1155787128547
3	45	0.44	3.1080743768698
3	46	0.45	3.100565805946
3	47	0.46	3.0930531277519
3	48	0.47	3.0855364699725
3	49	0.48	3.078015960299
3	50	0.49	3.0704917264238
3	51	0.5	3.0629638960328
3	52	0.51	3.0554325967959
3	53	0.52	3.0478979563615
3	54	0.53	3.040360102348
3	55	0.54	3.0328191623372
3	56	0.55	3.025275263866
3	57	0.56	3.0177285344188
3	58	0.57	3.0101791014207
3	59	0.58	3.002627092231
3	60	0.59	2.9950726341337
3	61	0.6	2.9875158543316
3	62	0.61	2.979956879939
3	63	0.62	2.9723958379737
3	64	0.63	2.9648328553506
3	65	0.64	2.9572680588736
3	66	0.65	2.9497015752284
3	67	0.66	2.942133530977
3	68	0.67	2.9345640525477
3	69	0.68	2.9269932662316
3	70	0.69	2.9194212981714
3	71	0.7	2.9118482743577
3	72	0.71	2.9042743206197
3	73	0.72	2.8966995626206
3	74	0.73	2.8891241258485
3	75	0.74	2.8815481356091
3	76	0.75	2.8739717170218
3	77	0.76	2.8663949950101
3	78	0.77	2.8588180942961
3	79	0.78	2.8512411393919
3	80	0.79	2.8436642545962
3	81	0.8	2.8360875639841
3	82	0.81	2.828511191403
3	83	0.82	2.8209352604641
3	84	0.83	2.8133598945374
3	85	0.84	2.8057852167436
3	86	0.85	2.7982113499483
3	102	0.86	2.7906384167572
3	103	0.87	2.7830665395065
3	104	0.88	2.7754958402582
3	105	0.89	2.7679264407951
3	106	0.9	2.7603584626114
3	107	0.91	2.7527920269094
3	108	0.92	2.7452272545908
3	109	0.93	2.7376642662524
3	125	0.94	2.7301031821807
3	126	0.95	2.7225441223422
3	127	0.96	2.7149872063809
3	128	0.97	2.707432553612
3	129	0.98	2.6998802830136
3	130	0.99	2.6923305132222
3	131	1	2.684783362529
3	132	1.01	2.6772389488698
3	133	1.02	2.6696973898233
3	134	1.03	2.6621588026032
3	135	1.04	2.6546233040534
3	136	1.05	2.6470910106418
3	137	1.06	2.6395620384548
3	138	1.07	2.6320365031935
3	139	1.08	2.6245145201656
3	140	1.09	2.6169962042815
3	141	1.1	2.6094816700507
3	142	1.11	2.6019710315737
3	143	1.12	2.5944644025358
3	144	1.13	2.5869618962076
3	145	1.14	2.5794636254346
3	146	1.15	2.5719697026332
3	147	1.16	2.5644802397878
3	148	1.17	2.5569953484442
3	149	1.18	2.5495151397045
3	150	1.19	2.5420397242236
3	151	1.2	2.5345692122023
3	152	1.21	2.5271037133869
3	153	1.22	2.5196433370581
3	154	1.23	2.5121881920327
3	155	1.24	2.504738386655
3	156	1.25	2.4972940287938
3	157	1.26	2.4898552258392
3	158	1.27	2.4824220846945
3	159	1.28	2.4749947117776
3	160	1.29	2.4675732130106
3	161	1.3	2.4601576938203
3	162	1.31	2.452748259131
3	163	1.32	2.4453450133642
3	164	1.33	2.4379480604289
3	165	1.34	2.4305575037246
3	166	1.35	2.4231734461303
3	167	1.36	2.4157959900066
3	168	1.37	2.4084252371892
3	169	1.38	2.4010612889839
3	170	1.39	2.3937042461675
3	171	1.4	2.3863542089785
3	172	1.41	2.3790112771188
3	173	1.42	2.371675549746
3	174	1.43	2.3643471254722
3	175	1.44	2.3570261023615
3	176	1.45	2.3497125779251
3	177	1.46	2.3424066491181
3	178	1.47	2.3351084123362
3	179	1.48	2.3278179634161
3	180	1.49	2.3205353976259
3	181	1.5	2.3132608096681
3	182	1.51	2.305994293674
3	183	1.52	2.2987359432015
3	184	1.53	2.2914858512308
3	185	1.54	2.2842441101659
3	186	1.55	2.2770108118252
3	187	1.56	2.2697860474452
3	188	1.57	2.2625699076748
3	189	1.58	2.2553624825733
3	190	1.59	2.2481638616092
3	191	1.6	2.2409741336553
3	192	1.61	2.2337933869878
3	193	1.62	2.2266217092863
3	194	1.63	2.2194591876271
3	195	1.64	2.2123059084848
3	196	1.65	2.2051619577276
3	197	1.66	2.1980274206179
3	198	1.67	2.1909023818083
3	199	1.68	2.1837869253396
3	200	1.69	2.1766811346417
3	201	1.7	2.169585092529
3	202	1.71	2.1624988811986
3	203	1.72	2.1554225822314
3	204	1.73	2.1483562765866
3	205	1.74	2.1413000446039
3	206	1.75	2.1342539660012
3	207	1.76	2.1272181198697
3	208	1.77	2.1201925846775
3	209	1.78	2.1131774382653
3	210	1.79	2.1061727578449
3	211	1.8	2.0991786200014
3	212	1.81	2.0921951006862
3	213	1.82	2.0852222752232
3	214	1.83	2.0782602183012
3	215	1.84	2.0713090039756
3	216	1.85	2.064368705669
3	244	1.86	2.0574393961681
3	245	1.87	2.0505211476241
3	246	1.88	2.043614031551
3	247	1.89	2.0367181188249
3	248	1.9	2.0298334796848
3	249	1.91	2.0229601837315
3	250	1.92	2.0160982999251
3	251	1.93	2.0092478965871
3	279	1.94	2.0024090413983
3	280	1.95	1.9955818014004
3	281	1.96	1.9887662429916
3	282	1.97	1.9819624319325
3	283	1.98	1.9751704333395
3	284	1.99	1.9683903116892
3	285	2	1.9616221308155
3	286	2.01	1.9548659539119
3	287	2.02	1.9481218435288
3	288	2.03	1.941389861576
3	289	2.04	1.9346700693212
3	290	2.05	1.9279625273917
3	291	2.06	1.9212672957714
3	319	2.07	1.9145844338048
3	320	2.08	1.9079140001956
3	321	2.09	1.9012560530065
3	322	2.1	1.8946106496593
3	323	2.11	1.8879778469376
3	324	2.12	1.8813577009851
3	325	2.13	1.8747502673072
3	326	2.14	1.8681556007699
3	327	2.15	1.8615737556026
3	328	2.16	1.8550047853978
3	356	2.17	1.8484487431117
3	357	2.18	1.8419056810643
3	358	2.19	1.8353756509413
3	359	2.2	1.8288587037944
3	360	2.21	1.8223548900416
3	361	2.22	1.8158642594699
3	362	2.23	1.809386861234
3	363	2.24	1.8029227438589
3	364	2.25	1.7964719552403
3	365	2.26	1.790034542644
3	366	2.27	1.7836105527124
3	367	2.28	1.7772000314579
3	368	2.29	1.7708030242702
3	369	2.3	1.7644195759161
3	370	2.31	1.7580497305374
3	371	2.32	1.7516935316586
3	372	2.33	1.7453510221813
3	373	2.34	1.73902224439
3	374	2.35	1.7327072399532
3	375	2.36	1.7264060499215
3	376	2.37	1.720118714735
3	377	2.38	1.7138452742181
3	378	2.39	1.7075857675863
3	379	2.4	1.7013402334449
3	380	2.41	1.6951087097915
3	381	2.42	1.6888912340185
3	382	2.43	1.6826878429129
3	383	2.44	1.6764985726596
3	384	2.45	1.6703234588419
3	385	2.46	1.6641625364457
3	386	2.47	1.6580158398575
3	387	2.48	1.6518834028695
3	388	2.49	1.6457652586809
3	389	2.5	1.6396614398971
3	390	2.51	1.6335719785367
3	391	2.52	1.6274969060284
3	392	2.53	1.6214362532146
3	393	2.54	1.6153900503568
3	394	2.55	1.6093583271321
3	395	2.56	1.6033411126386
3	396	2.57	1.5973384353984
3	397	2.58	1.5913503233556
3	398	2.59	1.5853768038831
3	399	2.6	1.5794179037826
3	400	2.61	1.5734736492853
3	401	2.62	1.567544066058
3	402	2.63	1.5616291792014
3	403	2.64	1.5557290132556
3	404	2.65	1.5498435921991
3	405	2.66	1.5439729394551
3	406	2.67	1.5381170778895
3	407	2.68	1.5322760298176
3	408	2.69	1.5264498170026
3	409	2.7	1.5206384606607
3	410	2.71	1.5148419814622
3	411	2.72	1.5090603995354
3	412	2.73	1.5032937344664
3	413	2.74	1.4975420053055
3	414	2.75	1.4918052305646
3	415	2.76	1.4860834282246
3	416	2.77	1.4803766157357
3	417	2.78	1.4746848100202
3	418	2.79	1.4690080274747
3	419	2.8	1.4633462839726
3	420	2.81	1.4576995948694
3	421	2.82	1.4520679750007
3	422	2.83	1.4464514386887
3	423	2.84	1.4408499997437
3	424	2.85	1.4352636714655
3	452	2.86	1.4296924666482
3	453	2.87	1.4241363975813
3	454	2.88	1.4185954760535
3	455	2.89	1.4130697133545
3	456	2.9	1.407559120279
3	457	2.91	1.4020637071283
3	458	2.92	1.396583483713
3	459	2.93	1.3911184593567
3	487	2.94	1.3856686428987
3	488	2.95	1.3802340426956
3	489	2.96	1.3748146666266
3	490	2.97	1.3694105220942
3	491	2.98	1.3640216160255
3	492	2.99	1.3586479548806
3	493	3	1.3532895446495
3	494	3.01	1.3479463908588
3	495	3.02	1.3426184985732
3	496	3.03	1.3373058723985
3	497	3.04	1.3320085164828
3	498	3.05	1.3267264345245
3	499	3.06	1.3214596297686
3	533	3.07	1.3162081050147
3	534	3.08	1.3109718626183
3	535	3.09	1.3057509044913
3	536	3.1	1.3005452321103
3	537	3.11	1.2953548465134
3	538	3.12	1.2901797483096
3	539	3.13	1.2850199376743
3	540	3.14	1.2798754143596
3	541	3.15	1.2747461776932
3	542	3.16	1.2696322265803
3	621	3.17	1.264533559511
3	622	3.18	1.2594501745589
3	623	3.19	1.2543820693871
3	624	3.2	1.2493292412486
3	664	3.21	1.2442916869929
3	665	3.22	1.2392694030638
3	666	3.23	1.2342623855083
3	667	3.24	1.2292706299739
3	668	3.25	1.2242941317169
3	669	3.26	1.2193328856014
3	670	3.27	1.2143868861031
3	671	3.28	1.2094561273152
3	672	3.29	1.2045406029465
3	673	3.3	1.1996403063286
3	674	3.31	1.1947552304179
3	675	3.32	1.1898853677963
3	676	3.33	1.1850307106762
3	677	3.34	1.180191250905
3	678	3.35	1.1753669799646
3	679	3.36	1.1705578889767
3	680	3.37	1.1657639687051
3	681	3.38	1.1609852095589
3	682	3.39	1.1562216015953
3	683	3.4	1.1514731345223
4	4	0.03	29.522728125213
4	5	0.04	29.773473306832
4	6	0.05	29.758922613078
4	7	0.06	29.744125341304
4	8	0.07	29.729082327542
4	9	0.08	29.713794416767
4	10	0.09	29.698262462827
4	11	0.1	29.682487328384
4	12	0.11	29.666469884855
4	13	0.12	29.650211012335
4	14	0.13	29.63371159954
4	15	0.14	29.616972543738
4	16	0.15	29.599994750685
4	17	0.16	29.582779134553
4	18	0.17	29.565326617862
4	19	0.18	29.547638131407
4	20	0.19	29.529714614196
4	21	0.2	29.511557013377
4	22	0.21	29.493166284158
4	23	0.22	29.474543389747
4	24	0.23	29.455689301269
4	25	0.24	29.436604997703
4	26	0.25	29.41729146579
4	27	0.26	29.397749699983
4	28	0.27	29.377980702348
4	29	0.28	29.357985482506
4	30	0.29	29.337765057542
4	31	0.3	29.317320451939
4	32	0.31	29.296652697496
4	33	0.32	29.275762833242
4	34	0.33	29.254651905372
4	35	0.34	29.233320967158
4	36	0.35	29.211771078868
4	37	0.36	29.190003307691
4	38	0.37	29.168018727651
4	39	0.38	29.145818419528
4	40	0.39	29.123403470776
4	41	0.4	29.100774975444
4	42	0.41	29.077934034079
4	43	0.42	29.05488175366
4	44	0.43	29.031619247509
4	45	0.44	29.008147635196
4	46	0.45	28.984468042468
4	47	0.46	28.960581601158
4	48	0.47	28.936489449104
4	49	0.48	28.912192730049
4	50	0.49	28.88769259357
4	51	0.5	28.862990194994
4	52	0.51	28.838086695292
4	53	0.52	28.812983261006
4	54	0.53	28.787681064161
4	55	0.54	28.762181282174
4	56	0.55	28.736485097767
4	57	0.56	28.710593698872
4	58	0.57	28.684508278551
4	59	0.58	28.65823003491
4	60	0.59	28.631760170995
4	61	0.6	28.605099894715
4	62	0.61	28.57825041875
4	63	0.62	28.551212960454
4	64	0.63	28.523988741778
4	65	0.64	28.496578989165
4	66	0.65	28.468984933467
4	67	0.66	28.44120780986
4	68	0.67	28.413248857737
4	69	0.68	28.385109320641
4	70	0.69	28.356790446145
4	71	0.7	28.328293485786
4	72	0.71	28.299619694956
4	73	0.72	28.270770332827
4	74	0.73	28.241746662247
4	75	0.74	28.212549949641
4	76	0.75	28.183181464947
4	77	0.76	28.153642481501
4	78	0.77	28.123934275956
4	79	0.78	28.094058128173
4	80	0.79	28.064015321162
4	81	0.8	28.033807140956
4	82	0.81	28.003434876546
4	83	0.82	27.972899819769
4	84	0.83	27.942203265234
4	85	0.84	27.911346510212
4	86	0.85	27.880330854557
4	102	0.86	27.849157600622
4	103	0.87	27.817828053147
4	104	0.88	27.786343519179
4	105	0.89	27.754705307991
4	106	0.9	27.722914730966
4	107	0.91	27.690973101533
4	108	0.92	27.658881735053
4	109	0.93	27.626641948744
4	125	0.94	27.594255061595
4	126	0.95	27.561722394252
4	127	0.96	27.52904526895
4	128	0.97	27.496225009421
4	129	0.98	27.463262940793
4	130	0.99	27.4301603895
4	131	1	27.396918683218
4	132	1.01	27.36353915074
4	133	1.02	27.330023121914
4	134	1.03	27.296371927548
4	135	1.04	27.262586899317
4	136	1.05	27.228669369675
4	137	1.06	27.194620671767
4	138	1.07	27.160442139358
4	139	1.08	27.126135106719
4	140	1.09	27.091700908554
4	141	1.1	27.05714087993
4	142	1.11	27.022456356166
4	143	1.12	26.987648672738
4	144	1.13	26.952719165241
4	145	1.14	26.917669169259
4	146	1.15	26.882500020293
4	147	1.16	26.847213053689
4	148	1.17	26.811809604544
4	149	1.18	26.776291007616
4	150	1.19	26.740658597257
4	151	1.2	26.704913707312
4	152	1.21	26.669057671067
4	153	1.22	26.633091821119
4	154	1.23	26.597017489346
4	155	1.24	26.560836006789
4	156	1.25	26.524548703589
4	157	1.26	26.488156908913
4	158	1.27	26.451661950843
4	159	1.28	26.415065156347
4	160	1.29	26.378367851148
4	161	1.3	26.341571359684
4	162	1.31	26.304677005006
4	163	1.32	26.26768610873
4	164	1.33	26.230599990916
4	165	1.34	26.193419970047
4	166	1.35	26.156147362896
4	167	1.36	26.1187834845
4	168	1.37	26.08132964806
4	169	1.38	26.043787164861
4	170	1.39	26.006157344232
4	171	1.4	25.968441493428
4	172	1.41	25.9306409176
4	173	1.42	25.892756919689
4	174	1.43	25.854790800372
4	175	1.44	25.816743857999
4	176	1.45	25.778617388511
4	177	1.46	25.740412685365
4	178	1.47	25.702131039473
4	179	1.48	25.663773739154
4	180	1.49	25.625342070018
4	181	1.5	25.586837314945
4	182	1.51	25.548260753999
4	183	1.52	25.509613664365
4	184	1.53	25.470897320272
4	185	1.54	25.432112992966
4	186	1.55	25.393261950585
4	187	1.56	25.354345458157
4	188	1.57	25.315364777499
4	189	1.58	25.276321167169
4	190	1.59	25.237215882412
4	191	1.6	25.198050175074
4	192	1.61	25.158825293563
4	193	1.62	25.119542482797
4	194	1.63	25.080202984115
4	195	1.64	25.040808035249
4	196	1.65	25.001358870243
4	197	1.66	24.961856719419
4	198	1.67	24.922302809303
4	199	1.68	24.882698362569
4	200	1.69	24.843044598006
4	201	1.7	24.803342730444
4	202	1.71	24.763593970694
4	203	1.72	24.723799525524
4	204	1.73	24.68396059757
4	205	1.74	24.644078385318
4	206	1.75	24.604154083046
4	207	1.76	24.564188880745
4	208	1.77	24.52418396411
4	209	1.78	24.484140514468
4	210	1.79	24.444059708726
4	211	1.8	24.403942719356
4	212	1.81	24.363790714293
4	213	1.82	24.323604856955
4	214	1.83	24.283386306141
4	215	1.84	24.243136216011
4	216	1.85	24.20285573605
4	244	1.86	24.16254601101
4	245	1.87	24.122208180876
4	246	1.88	24.081843380818
4	247	1.89	24.041452741145
4	248	1.9	24.001037387287
4	249	1.91	23.960598439735
4	250	1.92	23.920137014002
4	251	1.93	23.879654220596
4	279	1.94	23.83915116497
4	280	1.95	23.798628947504
4	281	1.96	23.758088663433
4	282	1.97	23.717531402864
4	283	1.98	23.676958250685
4	284	1.99	23.636370286572
4	285	2	23.595768584932
4	286	2.01	23.555154214886
4	287	2.02	23.514528240221
4	288	2.03	23.47389171937
4	289	2.04	23.433245705381
4	290	2.05	23.392591245884
4	291	2.06	23.351929383048
4	319	2.07	23.311261153577
4	320	2.08	23.27058758867
4	321	2.09	23.229909713989
4	322	2.1	23.189228549627
4	323	2.11	23.148545110107
4	324	2.12	23.107860404332
4	325	2.13	23.067175435574
4	326	2.14	23.026491201431
4	327	2.15	22.985808693828
4	328	2.16	22.945128898981
4	356	2.17	22.904452797376
4	357	2.18	22.863781363743
4	358	2.19	22.823115567042
4	359	2.2	22.78245637044
4	360	2.21	22.741804731288
4	361	2.22	22.701161601112
4	362	2.23	22.660527925581
4	363	2.24	22.619904644501
4	364	2.25	22.57929269179
4	365	2.26	22.538692995453
4	366	2.27	22.498106477603
4	367	2.28	22.457534054389
4	368	2.29	22.416976636028
4	369	2.3	22.37643512678
4	370	2.31	22.335910424907
4	371	2.32	22.295403422709
4	372	2.33	22.254915006462
4	373	2.34	22.214446056436
4	374	2.35	22.173997446882
4	375	2.36	22.133570046002
4	376	2.37	22.093164715972
4	377	2.38	22.052782312894
4	378	2.39	22.01242368682
4	379	2.4	21.97208968172
4	380	2.41	21.931781135489
4	381	2.42	21.891498879938
4	382	2.43	21.851243740777
4	383	2.44	21.811016537623
4	384	2.45	21.770818083978
4	385	2.46	21.730649187249
4	386	2.47	21.690510648712
4	387	2.48	21.650403263532
4	388	2.49	21.61032782076
4	389	2.5	21.5702851033
4	390	2.51	21.530275887955
4	391	2.52	21.490300945381
4	392	2.53	21.450361040101
4	393	2.54	21.410456930528
4	394	2.55	21.370589368921
4	395	2.56	21.330759101415
4	396	2.57	21.290966868025
4	397	2.58	21.251213402615
4	398	2.59	21.211499432941
4	399	2.6	21.17182568063
4	400	2.61	21.132192861171
4	401	2.62	21.092601683954
4	402	2.63	21.053052852237
4	403	2.64	21.013547063179
4	404	2.65	20.974085007816
4	405	2.66	20.934667371098
4	406	2.67	20.89529483186
4	407	2.68	20.855968062866
4	408	2.69	20.816687730775
4	409	2.7	20.777454496179
4	410	2.71	20.738269013594
4	411	2.72	20.699131931481
4	412	2.73	20.660043892232
4	413	2.74	20.62100553221
4	414	2.75	20.582017481716
4	415	2.76	20.543080365038
4	416	2.77	20.504194800444
4	417	2.78	20.465361400191
4	418	2.79	20.426580770533
4	419	2.8	20.387853511732
4	420	2.81	20.349180218093
4	421	2.82	20.310561477931
4	422	2.83	20.271997873624
4	423	2.84	20.233489981605
4	424	2.85	20.195038372373
4	452	2.86	20.156643610519
4	453	2.87	20.118306254728
4	454	2.88	20.080026857797
4	455	2.89	20.041805966649
4	456	2.9	20.003644122352
4	457	2.91	19.965541860125
4	458	2.92	19.927499709353
4	459	2.93	19.889518193611
4	487	2.94	19.851597830677
4	488	2.95	19.81373913254
4	489	2.96	19.775942605433
4	490	2.97	19.738208749837
4	491	2.98	19.700538060481
4	492	2.99	19.66293102641
4	493	3	19.625388130945
4	494	3.01	19.587909851741
4	495	3.02	19.550496660789
4	496	3.03	19.513149024437
4	497	3.04	19.475867403392
4	498	3.05	19.438652252785
4	499	3.06	19.401504022133
4	533	3.07	19.364423155399
4	534	3.08	19.327410091003
4	535	3.09	19.290465261817
4	536	3.1	19.253589095231
4	537	3.11	19.216782013123
4	538	3.12	19.180044431934
4	539	3.13	19.143376762624
4	540	3.14	19.106779410759
4	541	3.15	19.070252776493
4	542	3.16	19.033797254582
4	621	3.17	18.997413234447
4	622	3.18	18.961101100154
4	623	3.19	18.924861230465
4	624	3.2	18.888693998835
4	664	3.21	18.852599773469
4	665	3.22	18.816578917298
4	666	3.23	18.780631788057
4	667	3.24	18.744758738249
4	668	3.25	18.708960115226
4	669	3.26	18.673236261172
4	670	3.27	18.637587513132
4	671	3.28	18.602014203064
4	672	3.29	18.56651665782
4	673	3.3	18.531095199208
4	674	3.31	18.495750144003
4	675	3.32	18.460481803957
4	676	3.33	18.425290485836
4	677	3.34	18.390176491461
4	678	3.35	18.355140117703
4	679	3.36	18.320181656527
4	680	3.37	18.285301395008
4	681	3.38	18.250499615362
4	682	3.39	18.215776594972
4	683	3.4	18.181132606404
5	52	0.51	191.15880186412
5	53	0.52	191.15880186412
5	54	0.53	190.86265932021
5	55	0.54	190.56646450788
5	56	0.55	190.27046154374
5	57	0.56	189.97465042779
5	58	0.57	189.67903116003
5	59	0.58	189.38360374046
5	60	0.59	189.08836816909
5	61	0.6	188.7933244459
5	62	0.61	188.4984725709
5	63	0.62	188.2038125441
5	64	0.63	187.90934436548
5	65	0.64	187.61506803506
5	66	0.65	187.32098355283
5	67	0.66	187.02709091879
5	68	0.67	186.73339013293
5	69	0.68	186.43988119527
5	70	0.69	186.1465641058
5	71	0.7	185.85343886452
5	72	0.71	185.56050547144
5	73	0.72	185.26776392654
5	74	0.73	184.97521422983
5	75	0.74	184.68285638132
5	76	0.75	184.39069038099
5	77	0.76	184.09871622886
5	78	0.77	183.80693392491
5	79	0.78	183.51534346916
5	80	0.79	183.2239448616
5	81	0.8	182.93273810222
5	82	0.81	182.64172319104
5	83	0.82	182.35090012805
5	84	0.83	182.06026891325
5	85	0.84	181.76982954664
5	86	0.85	181.47958202822
5	102	0.86	181.189526358
5	103	0.87	180.89966253596
5	104	0.88	180.60999056211
5	105	0.89	180.32051043646
5	106	0.9	180.03122215899
5	107	0.91	179.74212572972
5	108	0.92	179.45322114864
5	109	0.93	179.16450841574
5	125	0.94	178.87598753104
5	126	0.95	178.58765849453
5	127	0.96	178.29952130621
5	128	0.97	178.01157596608
5	129	0.98	177.72382247414
5	130	0.99	177.4362608304
5	131	1	177.14889103484
5	132	1.01	176.86171308747
5	133	1.02	176.5747269883
5	134	1.03	176.28793273731
5	135	1.04	176.00133033452
5	136	1.05	175.71491977991
5	137	1.06	175.4287010735
5	138	1.07	175.14267421528
5	139	1.08	174.85683920525
5	140	1.09	174.5711960434
5	141	1.1	174.28574472975
5	142	1.11	174.00048526429
5	143	1.12	173.71541764703
5	144	1.13	173.43054187795
5	145	1.14	173.14585795706
5	146	1.15	172.86136588436
5	147	1.16	172.57706565986
5	148	1.17	172.29295728354
5	149	1.18	172.00904075542
5	150	1.19	171.72531607549
5	151	1.2	171.44178324374
5	152	1.21	171.15844226019
5	153	1.22	170.87529312483
5	154	1.23	170.59233583766
5	155	1.24	170.30957039868
5	156	1.25	170.02699680789
5	157	1.26	169.74461506529
5	158	1.27	169.46242517088
5	159	1.28	169.18042712467
5	160	1.29	168.89862092664
5	161	1.3	168.6170065768
5	162	1.31	168.33558407516
5	163	1.32	168.05435342171
5	164	1.33	167.77331461644
5	165	1.34	167.49246765937
5	166	1.35	167.21181255049
5	167	1.36	166.9313492898
5	168	1.37	166.6510778773
5	169	1.38	166.37099831299
5	170	1.39	166.09111059687
5	171	1.4	165.81141472894
5	172	1.41	165.54870795185
5	173	1.42	165.29672725553
5	174	1.43	165.04491963451
5	175	1.44	164.79328508881
5	176	1.45	164.54182361841
5	177	1.46	164.29053522333
5	178	1.47	164.03941990355
5	179	1.48	163.78847765909
5	180	1.49	163.53770848993
5	181	1.5	163.28711239609
5	182	1.51	163.03668937755
5	183	1.52	162.78643943433
5	184	1.53	162.53636256641
5	185	1.54	162.28645877381
5	186	1.55	162.03672805651
5	187	1.56	161.78717041453
5	188	1.57	161.53778584785
5	189	1.58	161.28857435649
5	190	1.59	161.03953594043
5	191	1.6	160.2336137877
5	192	1.61	159.42796102647
5	193	1.62	159.17905237139
5	194	1.63	158.92983242957
5	195	1.64	158.68030187238
5	196	1.65	158.43046137225
5	197	1.66	158.18031160265
5	198	1.67	157.92985323811
5	199	1.68	157.67908695417
5	200	1.69	157.42801342739
5	201	1.7	157.17663333533
5	202	1.71	156.92494735656
5	203	1.72	156.67295617058
5	204	1.73	156.42066045791
5	205	1.74	156.16806089997
5	206	1.75	155.91515817917
5	207	1.76	155.6619529788
5	208	1.77	155.40844598309
5	209	1.78	155.15463787717
5	210	1.79	154.90052934704
5	211	1.8	154.64612107959
5	212	1.81	154.39141376257
5	213	1.82	154.13640808457
5	214	1.83	153.88110473503
5	215	1.84	153.6255044042
5	216	1.85	153.36960778314
5	244	1.86	153.11341556372
5	245	1.87	152.85692843858
5	246	1.88	152.60014710114
5	247	1.89	152.34307224556
5	248	1.9	152.08570456676
5	249	1.91	151.82804476039
5	250	1.92	151.57009352281
5	251	1.93	151.31185155109
5	279	1.94	151.05331954299
5	280	1.95	150.79449819694
5	281	1.96	150.53538821204
5	282	1.97	150.27599028805
5	283	1.98	150.01630512535
5	284	1.99	149.75633342496
5	285	2	149.4960758885
5	286	2.01	149.23553321818
5	287	2.02	148.97470611682
5	288	2.03	148.71359528779
5	289	2.04	148.45220143501
5	290	2.05	148.19052526297
5	291	2.06	147.92856747668
5	319	2.07	147.66632878164
5	320	2.08	147.40380988389
5	321	2.09	147.14101148994
5	322	2.1	146.87793430678
5	323	2.11	146.61457904186
5	324	2.12	146.35094640308
5	325	2.13	146.08703709878
5	326	2.14	145.82285183772
5	327	2.15	145.55839132907
5	328	2.16	145.29365628238
5	356	2.17	145.0286474076
5	357	2.18	144.76336541504
5	358	2.19	144.49781101536
5	359	2.2	144.23198491957
5	360	2.21	143.965887839
5	361	2.22	143.69952048529
5	362	2.23	143.4328835704
5	363	2.24	143.16597780655
5	364	2.25	142.89880390625
5	365	2.26	142.63136258226
5	366	2.27	142.36365454759
5	367	2.28	142.0956805155
5	368	2.29	141.82744119943
5	369	2.3	141.55893731305
5	370	2.31	141.29016957024
5	371	2.32	141.02113868502
5	372	2.33	140.75184537159
5	373	2.34	140.48229034432
5	374	2.35	140.2124743177
5	375	2.36	139.94239800634
5	376	2.37	139.67206212498
5	377	2.38	139.40146738845
5	378	2.39	139.13061451165
5	379	2.4	138.85950420958
5	380	2.41	138.58813719728
5	381	2.42	138.31651418983
5	382	2.43	138.04463590236
5	383	2.44	137.77250305001
5	384	2.45	137.50011634792
5	385	2.46	137.22747651123
5	386	2.47	136.95458425505
5	387	2.48	136.68144029447
5	388	2.49	136.40804534453
5	389	2.5	136.13440012018
5	390	2.51	135.86050533635
5	391	2.52	135.58636170784
5	392	2.53	135.31196994937
5	393	2.54	135.03733077554
5	394	2.55	134.76244490083
5	395	2.56	134.48731303958
5	396	2.57	134.21193590599
5	397	2.58	133.93631421407
5	398	2.59	133.66044867767
5	399	2.6	133.38434001046
5	400	2.61	133.1079889259
5	401	2.62	132.83139613722
5	402	2.63	132.55456235745
5	403	2.64	132.27748829936
5	404	2.65	132.00017467546
5	405	2.66	131.72262219803
5	406	2.67	131.44483157904
5	407	2.68	131.16680353019
5	408	2.69	130.88853876285
5	409	2.7	130.61003798811
5	410	2.71	130.33130191671
5	411	2.72	130.05233125906
5	412	2.73	129.77312672521
5	413	2.74	129.49368902486
5	414	2.75	129.21401886732
5	415	2.76	128.93411696151
5	416	2.77	128.65398401597
5	417	2.78	128.37362073882
5	418	2.79	128.09302783773
5	419	2.8	127.81220601997
5	420	2.81	127.53115599234
5	421	2.82	127.2498784612
5	422	2.83	126.96837413241
5	423	2.84	126.68664371137
5	424	2.85	126.40468790297
5	452	2.86	126.12250741162
5	453	2.87	125.84010294117
5	454	2.88	125.55747519498
5	455	2.89	125.27462487584
5	456	2.9	124.99155268601
5	457	2.91	124.70825932718
5	458	2.92	124.42474550044
5	459	2.93	124.14101190634
5	487	2.94	123.85705924478
5	488	2.95	123.57288821511
5	489	2.96	123.288499516
5	490	2.97	123.00389384554
5	491	2.98	122.71907190114
5	492	2.99	122.43403437958
5	493	3	122.14878197697
5	494	3.01	121.86331538875
5	495	3.02	121.57763530966
5	496	3.03	121.29174243377
5	497	3.04	121.00563745443
5	498	3.05	120.71932106425
5	499	3.06	120.43279395516
5	533	3.07	120.14605681832
5	534	3.08	119.85911034414
5	535	3.09	119.5719552223
5	536	3.1	119.28459214167
5	537	3.11	118.99702179039
5	538	3.12	118.70924485577
5	539	3.13	118.42126202434
5	540	3.14	118.13307398181
5	541	3.15	117.84468141309
5	542	3.16	117.55608500225
5	621	3.17	117.26728543253
5	622	3.18	116.97828338629
5	623	3.19	116.68907954508
5	624	3.2	116.39967458955
5	664	3.21	116.11006919948
5	665	3.22	115.82026405377
5	666	3.23	115.53025983042
5	667	3.24	115.24005720653
5	668	3.25	114.94965685828
5	669	3.26	114.65905946092
5	670	3.27	114.36826568879
5	671	3.28	114.07727621527
5	672	3.29	113.78609171278
5	673	3.3	113.49471285281
5	674	3.31	113.20314030586
5	675	3.32	112.91137474146
5	676	3.33	112.61941682816
5	677	3.34	112.3272672335
5	678	3.35	112.03492662403
5	679	3.36	111.74239566528
5	680	3.37	111.44967502177
5	681	3.38	111.15676535698
5	682	3.39	110.86366733338
5	683	3.4	110.57038161235
6	52	0.51	411.5436352633
6	53	0.52	411.5436352633
6	54	0.53	411.49667414863
6	55	0.54	411.44970474545
6	56	0.55	411.4027657648
6	57	0.56	411.35585720667
6	58	0.57	411.30897907107
6	59	0.58	411.262131358
6	60	0.59	411.21531406746
6	61	0.6	411.16852719945
6	62	0.61	411.12177075396
6	63	0.62	411.07504473101
6	64	0.63	411.02834913058
6	65	0.64	410.98168395268
6	66	0.65	410.93504919731
6	67	0.66	410.88844486446
6	68	0.67	410.84187095414
6	69	0.68	410.79532746636
6	70	0.69	410.7488144011
6	71	0.7	410.70233175837
6	72	0.71	410.65587953816
6	73	0.72	410.60945774049
6	74	0.73	410.56306636534
6	75	0.74	410.51670541272
6	76	0.75	410.47037488263
6	77	0.76	410.42407477507
6	78	0.77	410.37780509003
6	79	0.78	410.33156582753
6	80	0.79	410.28535698755
6	81	0.8	410.2391785701
6	82	0.81	410.19303057518
6	83	0.82	410.14691300278
6	84	0.83	410.10082585292
6	85	0.84	410.05476912558
6	86	0.85	410.00874282077
6	102	0.86	409.96274693849
6	103	0.87	409.91678147874
6	104	0.88	409.87084644151
6	105	0.89	409.82494182682
6	106	0.9	409.77906763465
6	107	0.91	409.73322386501
6	108	0.92	409.68741051789
6	109	0.93	409.64162759331
6	125	0.94	409.59587509125
6	126	0.95	409.55015301173
6	127	0.96	409.50446135473
6	128	0.97	409.45880012026
6	129	0.98	409.41316930831
6	130	0.99	409.3675689189
6	131	1	409.32199895201
6	132	1.01	409.27645940765
6	133	1.02	409.23095028582
6	134	1.03	409.18547158652
6	135	1.04	409.14002330975
6	136	1.05	409.0946054555
6	137	1.06	409.04921802378
6	138	1.07	409.00386101459
6	139	1.08	408.95853442793
6	140	1.09	408.9132382638
6	141	1.1	408.86797252219
6	142	1.11	408.82273720312
6	143	1.12	408.77753230657
6	144	1.13	408.73235783255
6	145	1.14	408.68721378105
6	146	1.15	408.64210015209
6	147	1.16	408.59701694565
6	148	1.17	408.55196416175
6	149	1.18	408.50694180037
6	150	1.19	408.46194986151
6	151	1.2	408.41698834519
6	152	1.21	408.3720572514
6	153	1.22	408.32715658013
6	154	1.23	408.28228633139
6	155	1.24	408.23744650518
6	156	1.25	408.1926371015
6	157	1.26	408.14785812034
6	158	1.27	408.10310956172
6	159	1.28	408.05839142562
6	160	1.29	408.01370371205
6	161	1.3	407.96904642101
6	162	1.31	407.92441955249
6	163	1.32	407.87982310651
6	164	1.33	407.83525708305
6	165	1.34	407.79072148212
6	166	1.35	407.74621630372
6	167	1.36	407.70174154785
6	168	1.37	407.6572972145
6	169	1.38	407.61288330368
6	170	1.39	407.5684998154
6	171	1.4	407.52414674964
6	172	1.41	407.42814251832
6	173	1.42	407.29975708819
6	174	1.43	407.17145984081
6	175	1.44	407.04325077616
6	176	1.45	406.91512989426
6	177	1.46	406.78709719509
6	178	1.47	406.65915267866
6	179	1.48	406.53129634497
6	180	1.49	406.40352819402
6	181	1.5	406.27584822582
6	182	1.51	406.14825644035
6	183	1.52	406.02075283762
6	184	1.53	405.89333741763
6	185	1.54	405.76601018038
6	186	1.55	405.63877112587
6	187	1.56	405.5116202541
6	188	1.57	405.38455756506
6	189	1.58	405.25758305877
6	190	1.59	405.13069673522
6	191	1.6	408.31148996242
6	192	1.61	411.49241989662
6	193	1.62	411.36559968651
6	194	1.63	411.23862087424
6	195	1.64	411.11148380189
6	196	1.65	410.98418881204
6	197	1.66	410.85673624785
6	198	1.67	410.72912645299
6	199	1.68	410.60135977165
6	200	1.69	410.47343654853
6	201	1.7	410.34535712887
6	202	1.71	410.21712185838
6	203	1.72	410.0887310833
6	204	1.73	409.96018515033
6	205	1.74	409.83148440668
6	206	1.75	409.70262920002
6	207	1.76	409.5736198785
6	208	1.77	409.44445679075
6	209	1.78	409.31514028582
6	210	1.79	409.18567071325
6	211	1.8	409.05604842302
6	212	1.81	408.92627376552
6	213	1.82	408.79634709161
6	214	1.83	408.66626875255
6	215	1.84	408.53603910003
6	216	1.85	408.40565848615
6	244	1.86	408.27512726343
6	245	1.87	408.14444578475
6	246	1.88	408.01361440343
6	247	1.89	407.88263347315
6	248	1.9	407.75150334796
6	249	1.91	407.62022438231
6	250	1.92	407.488796931
6	251	1.93	407.35722134918
6	279	1.94	407.22549799236
6	280	1.95	407.09362721641
6	281	1.96	406.96160937751
6	282	1.97	406.8294448322
6	283	1.98	406.69713393733
6	284	1.99	406.56467705006
6	285	2	406.43207452788
6	286	2.01	406.29932672857
6	287	2.02	406.16643401021
6	288	2.03	406.03339673117
6	289	2.04	405.90021525012
6	290	2.05	405.76688992599
6	291	2.06	405.63342111797
6	319	2.07	405.49980918555
6	320	2.08	405.36605448843
6	321	2.09	405.23215738659
6	322	2.1	405.09811824025
6	323	2.11	404.96393740986
6	324	2.12	404.8296152561
6	325	2.13	404.69515213986
6	326	2.14	404.56054842226
6	327	2.15	404.42580446464
6	328	2.16	404.2909206285
6	356	2.17	404.15589727558
6	357	2.18	404.02073476778
6	358	2.19	403.88543346718
6	359	2.2	403.74999373604
6	360	2.21	403.6144159368
6	361	2.22	403.47870043205
6	362	2.23	403.34284758451
6	363	2.24	403.20685775708
6	364	2.25	403.07073131277
6	365	2.26	402.93446861476
6	366	2.27	402.79807002632
6	367	2.28	402.66153591085
6	368	2.29	402.52486663186
6	369	2.3	402.38806255298
6	370	2.31	402.25112403791
6	371	2.32	402.11405145046
6	372	2.33	401.97684515453
6	373	2.34	401.83950551408
6	374	2.35	401.70203289314
6	375	2.36	401.56442765583
6	376	2.37	401.4266901663
6	377	2.38	401.28882078875
6	378	2.39	401.15081988744
6	379	2.4	401.01268782667
6	380	2.41	400.87442497074
6	381	2.42	400.736031684
6	382	2.43	400.5975083308
6	383	2.44	400.45885527552
6	384	2.45	400.32007288252
6	385	2.46	400.18116151617
6	386	2.47	400.04212154083
6	387	2.48	399.90295332083
6	388	2.49	399.76365722048
6	389	2.5	399.62423360407
6	390	2.51	399.48468283585
6	391	2.52	399.34500528002
6	392	2.53	399.20520130072
6	393	2.54	399.06527126206
6	394	2.55	398.92521552806
6	395	2.56	398.78503446268
6	396	2.57	398.64472842981
6	397	2.58	398.50429779324
6	398	2.59	398.36374291669
6	399	2.6	398.22306416377
6	400	2.61	398.08226189798
6	401	2.62	397.94133648274
6	402	2.63	397.80028828132
6	403	2.64	397.6591176569
6	404	2.65	397.51782497249
6	405	2.66	397.37641059101
6	406	2.67	397.2348748752
6	407	2.68	397.09321818769
6	408	2.69	396.95144089092
6	409	2.7	396.8095433472
6	410	2.71	396.66752591864
6	411	2.72	396.52538896721
6	412	2.73	396.38313285468
6	413	2.74	396.24075794265
6	414	2.75	396.09826459251
6	415	2.76	395.95565316547
6	416	2.77	395.81292402253
6	417	2.78	395.67007752446
6	418	2.79	395.52711403185
6	419	2.8	395.38403390505
6	420	2.81	395.24083750417
6	421	2.82	395.09752518911
6	422	2.83	394.95409731951
6	423	2.84	394.81055425477
6	424	2.85	394.66689635404
6	452	2.86	394.52312397621
6	453	2.87	394.37923747991
6	454	2.88	394.2352372235
6	455	2.89	394.09112356506
6	456	2.9	393.94689686238
6	457	2.91	393.80255747298
6	458	2.92	393.65810575408
6	459	2.93	393.5135420626
6	487	2.94	393.36886675516
6	488	2.95	393.22408018806
6	489	2.96	393.07918271729
6	490	2.97	392.93417469853
6	491	2.98	392.78905648711
6	492	2.99	392.64382843804
6	493	3	392.498490906
6	494	3.01	392.35304424532
6	495	3.02	392.20748880996
6	496	3.03	392.06182495357
6	497	3.04	391.9160530294
6	498	3.05	391.77017339035
6	499	3.06	391.62418638895
6	533	3.07	391.47809237736
6	534	3.08	391.33189170734
6	535	3.09	391.18558473029
6	536	3.1	391.0391717972
6	537	3.11	390.89265325867
6	538	3.12	390.74602946489
6	539	3.13	390.59930076564
6	540	3.14	390.45246751032
6	541	3.15	390.30553004787
6	542	3.16	390.15848872684
6	621	3.17	390.01134389533
6	622	3.18	389.86409590103
6	623	3.19	389.71674509117
6	624	3.2	389.56929181256
6	664	3.21	389.42173641154
6	665	3.22	389.27407923402
6	666	3.23	389.12632062544
6	667	3.24	388.97846093079
6	668	3.25	388.83050049459
6	669	3.26	388.68243966087
6	670	3.27	388.53427877322
6	671	3.28	388.38601817473
6	672	3.29	388.23765820801
6	673	3.3	388.08919921517
6	674	3.31	387.94064153784
6	675	3.32	387.79198551715
6	676	3.33	387.64323149372
6	677	3.34	387.49437980768
6	678	3.35	387.34543079864
6	679	3.36	387.19638480568
6	680	3.37	387.04724216739
6	681	3.38	386.8980032218
6	682	3.39	386.74866830645
6	683	3.4	386.59923775833
7	53	0.52	30.03003959561
7	54	0.53	30.010595151166
7	55	0.54	29.991150706721
7	56	0.55	29.971706262277
7	57	0.56	29.952261817832
7	58	0.57	29.932817373388
7	59	0.58	29.913372928943
7	60	0.59	29.893928484499
7	61	0.6	29.874484040055
7	62	0.61	29.85503959561
7	63	0.62	29.835595151166
7	64	0.63	29.816150706721
7	65	0.64	29.796706262277
7	66	0.65	29.777261817832
7	67	0.66	29.757817373388
7	68	0.67	29.738372928943
7	69	0.68	29.718928484499
7	70	0.69	29.699484040055
7	71	0.7	29.68003959561
7	72	0.71	29.660595151166
7	73	0.72	29.641150706721
7	74	0.73	29.621706262277
7	75	0.74	29.602261817832
7	76	0.75	29.582817373388
7	77	0.76	29.563372928943
7	78	0.77	29.543928484499
7	79	0.78	29.524484040054
7	80	0.79	29.50503959561
7	81	0.8	29.485595151166
7	82	0.81	29.466150706721
7	83	0.82	29.446706262277
7	84	0.83	29.427261817832
7	85	0.84	29.407817373388
7	86	0.85	29.388372928943
7	102	0.86	29.368928484499
7	103	0.87	29.349484040054
7	104	0.88	29.33003959561
7	105	0.89	29.310595151166
7	106	0.9	29.291150706721
7	107	0.91	29.271706262277
7	108	0.92	29.252261817832
7	109	0.93	29.232817373388
7	125	0.94	29.213372928943
7	126	0.95	29.193928484499
7	127	0.96	29.174484040054
7	128	0.97	29.15503959561
7	129	0.98	29.135595151166
7	130	0.99	29.116150706721
7	131	1	29.096706262277
7	132	1.01	29.077261817832
7	133	1.02	29.057817373388
7	134	1.03	29.038372928943
7	135	1.04	29.018928484499
7	136	1.05	28.999484040054
7	137	1.06	28.98003959561
7	138	1.07	28.960595151166
7	139	1.08	28.941150706721
7	140	1.09	28.921706262277
7	141	1.1	28.902261817832
7	142	1.11	28.882817373388
7	143	1.12	28.863372928943
7	144	1.13	28.843928484499
7	145	1.14	28.824484040054
7	146	1.15	28.80503959561
7	147	1.16	28.785595151166
7	148	1.17	28.766150706721
7	149	1.18	28.746706262277
7	150	1.19	28.727261817832
7	151	1.2	28.707817373388
7	152	1.21	28.688372928943
7	153	1.22	28.668928484499
7	154	1.23	28.649484040054
7	155	1.24	28.63003959561
7	156	1.25	28.610595151166
7	157	1.26	28.591150706721
7	158	1.27	28.571706262277
7	159	1.28	28.552261817832
7	160	1.29	28.532817373388
7	161	1.3	28.513372928943
7	162	1.31	28.493928484499
7	163	1.32	28.474484040054
7	164	1.33	28.45503959561
7	165	1.34	28.435595151166
7	166	1.35	28.416150706721
7	167	1.36	28.396706262277
7	168	1.37	28.377261817832
7	169	1.38	28.357817373388
7	170	1.39	28.338372928943
7	171	1.4	28.318928484499
7	172	1.41	28.299484040054
7	173	1.42	28.28003959561
7	174	1.43	28.260595151166
7	175	1.44	28.241150706721
7	176	1.45	28.221706262277
7	177	1.46	28.202261817832
7	178	1.47	28.182817373388
7	179	1.48	28.163372928943
7	180	1.49	28.143928484499
7	181	1.5	28.124484040054
7	182	1.51	28.10503959561
7	183	1.52	28.085595151166
7	184	1.53	28.066150706721
7	185	1.54	28.046706262277
7	186	1.55	28.027261817832
7	187	1.56	28.007817373388
7	188	1.57	27.988372928943
7	189	1.58	27.968928484499
7	190	1.59	27.949484040054
7	191	1.6	27.93449338628
7	192	1.61	27.96948798843
7	193	1.62	28.00440725784
7	194	1.63	28.039251074298
7	195	1.64	28.074019318979
7	196	1.65	28.108711874446
7	197	1.66	28.143328624656
7	198	1.67	28.177869454967
7	199	1.68	28.212334252141
7	200	1.69	28.246722904347
7	201	1.7	28.281035301172
7	202	1.71	28.315271333618
7	203	1.72	28.349430894111
7	204	1.73	28.383513876504
7	205	1.74	28.417520176082
7	206	1.75	28.451449689565
7	207	1.76	28.485302315114
7	208	1.77	28.519077952333
7	209	1.78	28.552776502274
7	210	1.79	28.58639786744
7	211	1.8	28.619941951791
7	212	1.81	28.653408660744
7	213	1.82	28.686797901178
7	214	1.83	28.720109581439
7	215	1.84	28.753343611343
7	216	1.85	28.786499902175
7	244	1.86	28.819578366698
7	245	1.87	28.852578919152
7	246	1.88	28.885501475259
7	247	1.89	28.918345952224
7	248	1.9	28.951112268738
7	249	1.91	28.983800344985
7	250	1.92	29.016410102636
7	251	1.93	29.048941464858
7	279	1.94	29.081394356316
7	280	1.95	29.11376870317
7	281	1.96	29.146064433084
7	282	1.97	29.178281475222
7	283	1.98	29.210419760254
7	284	1.99	29.242479220355
7	285	2	29.274459789209
7	286	2.01	29.306361402009
7	287	2.02	29.338183995459
7	288	2.03	29.369927507774
7	289	2.04	29.401591878683
7	290	2.05	29.433177049431
7	291	2.06	29.464682962778
7	319	2.07	29.496109562998
7	320	2.08	29.527456795886
7	321	2.09	29.558724608753
7	322	2.1	29.58991295043
7	323	2.11	29.621021771267
7	324	2.12	29.652051023132
7	325	2.13	29.683000659416
7	326	2.14	29.713870635028
7	327	2.15	29.744660906398
7	328	2.16	29.775371431478
7	356	2.17	29.806002169738
7	357	2.18	29.83655308217
7	358	2.19	29.867024131284
7	359	2.2	29.897415281112
7	360	2.21	29.927726497203
7	361	2.22	29.957957746626
7	362	2.23	29.988108997966
7	363	2.24	30.018180221327
7	364	2.25	30.048171388328
7	365	2.26	30.078082472103
7	366	2.27	30.107913447301
7	367	2.28	30.137664290085
7	368	2.29	30.167334978126
7	369	2.3	30.196925490608
7	370	2.31	30.226435808225
7	371	2.32	30.255865913175
7	372	2.33	30.285215789165
7	373	2.34	30.314485421404
7	374	2.35	30.343674796602
7	375	2.36	30.372783902973
7	376	2.37	30.401812730225
7	377	2.38	30.430761269564
7	378	2.39	30.459629513691
7	379	2.4	30.488417456796
7	380	2.41	30.517125094559
7	381	2.42	30.545752424146
7	382	2.43	30.57429944421
7	383	2.44	30.602766154881
7	384	2.45	30.631152557771
7	385	2.46	30.659458655966
7	386	2.47	30.687684454025
7	387	2.48	30.715829957977
7	388	2.49	30.743895175318
7	389	2.5	30.771880115006
7	390	2.51	30.799784787461
7	391	2.52	30.82760920456
7	392	2.53	30.855353379631
7	393	2.54	30.883017327452
7	394	2.55	30.910601064251
7	395	2.56	30.938104607694
7	396	2.57	30.965527976886
7	397	2.58	30.992871192371
7	398	2.59	31.020134276118
7	399	2.6	31.047317251528
7	400	2.61	31.07442014342
7	401	2.62	31.101442978034
7	402	2.63	31.128385783025
7	403	2.64	31.155248587455
7	404	2.65	31.182031421794
7	405	2.66	31.208734317912
7	406	2.67	31.235357309073
7	407	2.68	31.261900429937
7	408	2.69	31.288363716547
7	409	2.7	31.314747206329
7	410	2.71	31.341050938088
7	411	2.72	31.367274952
7	412	2.73	31.393419289606
7	413	2.74	31.419483993813
7	414	2.75	31.445469108882
7	415	2.76	31.471374680427
7	416	2.77	31.497200755408
7	417	2.78	31.522947382126
7	418	2.79	31.548614610217
7	419	2.8	31.574202490648
7	420	2.81	31.599711075711
7	421	2.82	31.625140419015
7	422	2.83	31.650490575482
7	423	2.84	31.675761601344
7	424	2.85	31.700953554132
7	452	2.86	31.726066492674
7	453	2.87	31.751100477087
7	454	2.88	31.776055568772
7	455	2.89	31.800931830408
7	456	2.9	31.825729325944
7	457	2.91	31.850448120596
7	458	2.92	31.875088280839
7	459	2.93	31.899649874399
7	487	2.94	31.924132970251
7	488	2.95	31.948537638608
7	489	2.96	31.972863950918
7	490	2.97	31.997111979855
7	491	2.98	32.021281799314
7	492	2.99	32.045373484403
7	493	3	32.06938711144
7	494	3.01	32.09332275794
7	495	3.02	32.117180502613
7	496	3.03	32.140960425359
7	497	3.04	32.164662607253
7	498	3.05	32.188287130547
7	499	3.06	32.211834078658
7	533	3.07	32.235303536162
7	534	3.08	32.258695588788
7	535	3.09	32.282010323411
7	536	3.1	32.305247828042
7	537	3.11	32.328408191824
7	538	3.12	32.351491505024
7	539	3.13	32.374497859026
7	540	3.14	32.397427346323
7	541	3.15	32.420280060509
7	542	3.16	32.443056096274
7	621	3.17	32.465755549395
7	622	3.18	32.488378516728
7	623	3.19	32.510925096202
7	624	3.2	32.533395386812
7	664	3.21	32.55578948861
7	665	3.22	32.578107502696
7	666	3.23	32.600349531216
7	667	3.24	32.622515677347
7	668	3.25	32.644606045295
7	669	3.26	32.666620740287
7	670	3.27	32.68855986856
7	671	3.28	32.710423537354
7	672	3.29	32.732211854909
7	673	3.3	32.753924930451
7	674	3.31	32.775562874187
7	675	3.32	32.797125797299
7	676	3.33	32.818613811932
7	677	3.34	32.840027031189
7	678	3.35	32.861365569125
7	679	3.36	32.882629540734
7	680	3.37	32.903819061944
7	681	3.38	32.92493424961
7	682	3.39	32.945975221506
7	683	3.4	32.966942096314
8	54	0.53	-1.9444444444446
8	55	0.54	-1.9444444444446
8	56	0.55	-1.9444444444446
8	57	0.56	-1.9444444444446
8	58	0.57	-1.9444444444446
8	59	0.58	-1.9444444444446
8	60	0.59	-1.9444444444446
8	61	0.6	-1.9444444444446
8	62	0.61	-1.9444444444446
8	63	0.62	-1.9444444444446
8	64	0.63	-1.9444444444446
8	65	0.64	-1.9444444444446
8	66	0.65	-1.9444444444446
8	67	0.66	-1.9444444444446
8	68	0.67	-1.9444444444446
8	69	0.68	-1.9444444444446
8	70	0.69	-1.9444444444446
8	71	0.7	-1.9444444444446
8	72	0.71	-1.9444444444446
8	73	0.72	-1.9444444444446
8	74	0.73	-1.9444444444446
8	75	0.74	-1.9444444444446
8	76	0.75	-1.9444444444446
8	77	0.76	-1.9444444444446
8	78	0.77	-1.9444444444446
8	79	0.78	-1.9444444444446
8	80	0.79	-1.9444444444446
8	81	0.8	-1.9444444444446
8	82	0.81	-1.9444444444446
8	83	0.82	-1.9444444444446
8	84	0.83	-1.9444444444446
8	85	0.84	-1.9444444444446
8	86	0.85	-1.9444444444446
8	102	0.86	-1.9444444444446
8	103	0.87	-1.9444444444446
8	104	0.88	-1.9444444444446
8	105	0.89	-1.9444444444446
8	106	0.9	-1.9444444444446
8	107	0.91	-1.9444444444446
8	108	0.92	-1.9444444444446
8	109	0.93	-1.9444444444446
8	125	0.94	-1.9444444444446
8	126	0.95	-1.9444444444446
8	127	0.96	-1.9444444444446
8	128	0.97	-1.9444444444446
8	129	0.98	-1.9444444444446
8	130	0.99	-1.9444444444446
8	131	1	-1.9444444444446
8	132	1.01	-1.9444444444446
8	133	1.02	-1.9444444444446
8	134	1.03	-1.9444444444446
8	135	1.04	-1.9444444444446
8	136	1.05	-1.9444444444446
8	137	1.06	-1.9444444444446
8	138	1.07	-1.9444444444446
8	139	1.08	-1.9444444444446
8	140	1.09	-1.9444444444446
8	141	1.1	-1.9444444444446
8	142	1.11	-1.9444444444446
8	143	1.12	-1.9444444444446
8	144	1.13	-1.9444444444446
8	145	1.14	-1.9444444444446
8	146	1.15	-1.9444444444446
8	147	1.16	-1.9444444444446
8	148	1.17	-1.9444444444446
8	149	1.18	-1.9444444444446
8	150	1.19	-1.9444444444446
8	151	1.2	-1.9444444444446
8	152	1.21	-1.9444444444446
8	153	1.22	-1.9444444444446
8	154	1.23	-1.9444444444446
8	155	1.24	-1.9444444444446
8	156	1.25	-1.9444444444446
8	157	1.26	-1.9444444444446
8	158	1.27	-1.9444444444446
8	159	1.28	-1.9444444444446
8	160	1.29	-1.9444444444446
8	161	1.3	-1.9444444444446
8	162	1.31	-1.9444444444446
8	163	1.32	-1.9444444444446
8	164	1.33	-1.9444444444446
8	165	1.34	-1.9444444444446
8	166	1.35	-1.9444444444446
8	167	1.36	-1.9444444444446
8	168	1.37	-1.9444444444446
8	169	1.38	-1.9444444444446
8	170	1.39	-1.9444444444446
8	171	1.4	-1.9444444444446
8	172	1.41	-1.9444444444446
8	173	1.42	-1.9444444444446
8	174	1.43	-1.9444444444446
8	175	1.44	-1.9444444444446
8	176	1.45	-1.9444444444446
8	177	1.46	-1.9444444444446
8	178	1.47	-1.9444444444446
8	179	1.48	-1.9444444444446
8	180	1.49	-1.9444444444446
8	181	1.5	-1.9444444444446
8	182	1.51	-1.9444444444446
8	183	1.52	-1.9444444444446
8	184	1.53	-1.9444444444446
8	185	1.54	-1.9444444444446
8	186	1.55	-1.9444444444446
8	187	1.56	-1.9444444444446
8	188	1.57	-1.9444444444446
8	189	1.58	-1.9444444444446
8	190	1.59	-1.9444444444446
8	191	1.6	-1.4990653774063
8	192	1.61	3.4994602150125
8	193	1.62	3.491926940945
8	194	1.63	3.4843816458238
8	195	1.64	3.4768244680809
8	196	1.65	3.4692555466624
8	197	1.66	3.4616750210223
8	198	1.67	3.4540830311098
8	199	1.68	3.4464797173623
8	200	1.69	3.4388652206946
8	201	1.7	3.4312396824891
8	202	1.71	3.4236032445868
8	203	1.72	3.4159560492768
8	204	1.73	3.4082982392871
8	205	1.74	3.4006299577747
8	206	1.75	3.3929513483159
8	207	1.76	3.3852625548956
8	208	1.77	3.3775637218987
8	209	1.78	3.3698549940993
8	210	1.79	3.362136516651
8	211	1.8	3.3544084350766
8	212	1.81	3.3466708952584
8	213	1.82	3.3389240434285
8	214	1.83	3.331168026158
8	215	1.84	3.3234029903472
8	216	1.85	3.315629083216
8	244	1.86	3.3078464522927
8	245	1.87	3.3000552454048
8	246	1.88	3.2922556106683
8	247	1.89	3.2844476964783
8	248	1.9	3.2766316514973
8	249	1.91	3.2688076246465
8	250	1.92	3.2609757650953
8	251	1.93	3.25313622225
8	279	1.94	3.2452891457446
8	280	1.95	3.2374346854304
8	281	1.96	3.2295729913656
8	282	1.97	3.2217042138047
8	283	1.98	3.2138285031895
8	284	1.99	3.2059460101365
8	285	2	3.1980568854298
8	286	2.01	3.190161280007
8	287	2.02	3.182259344953
8	288	2.03	3.1743512314865
8	289	2.04	3.1664370909514
8	290	2.05	3.1585170748059
8	291	2.06	3.1505913346134
8	319	2.07	3.14266002203
8	320	2.08	3.1347232887963
8	321	2.09	3.126781286727
8	322	2.1	3.1188341676994
8	323	2.11	3.1108820836444
8	324	2.12	3.1029251865359
8	325	2.13	3.0949636283808
8	326	2.14	3.0869975612084
8	327	2.15	3.0790271370606
8	328	2.16	3.0710525079826
8	356	2.17	3.0630738260108
8	357	2.18	3.0550912431654
8	358	2.19	3.0471049114375
8	359	2.2	3.0391149827818
8	360	2.21	3.0311216091047
8	361	2.22	3.0231249422545
8	362	2.23	3.0151251340129
8	363	2.24	3.0071223360842
8	364	2.25	2.9991167000848
8	365	2.26	2.9911083775339
8	366	2.27	2.9830975198443
8	367	2.28	2.9750842783123
8	368	2.29	2.9670688041065
8	369	2.3	2.9590512482613
8	370	2.31	2.9510317616641
8	371	2.32	2.9430104950467
8	372	2.33	2.9349875989769
8	373	2.34	2.9269632238474
8	374	2.35	2.9189375198676
8	375	2.36	2.910910637053
8	376	2.37	2.9028827252162
8	377	2.38	2.8948539339577
8	378	2.39	2.8868244126571
8	379	2.4	2.8787943104632
8	380	2.41	2.8707637762842
8	381	2.42	2.8627329587799
8	382	2.43	2.854702006352
8	383	2.44	2.8466710671346
8	384	2.45	2.8386402889858
8	385	2.46	2.8306098194786
8	386	2.47	2.8225798058919
8	387	2.48	2.8145503952022
8	388	2.49	2.8065217340732
8	389	2.5	2.7984939688498
8	390	2.51	2.7904672455467
8	391	2.52	2.7824417098412
8	392	2.53	2.7744175070655
8	393	2.54	2.7663947821956
8	394	2.55	2.7583736798455
8	395	2.56	2.7503543442581
8	396	2.57	2.7423369192956
8	397	2.58	2.7343215484333
8	398	2.59	2.7263083747499
8	399	2.6	2.71829754092
8	400	2.61	2.7102891892071
8	401	2.62	2.7022834614527
8	402	2.63	2.6942804990725
8	403	2.64	2.6862804430447
8	404	2.65	2.6782834339048
8	405	2.66	2.6702896117374
8	406	2.67	2.662299116168
8	407	2.68	2.6543120863558
8	408	2.69	2.6463286609854
8	409	2.7	2.6383489782621
8	410	2.71	2.6303731759015
8	411	2.72	2.6224013911236
8	412	2.73	2.6144337606461
8	413	2.74	2.606470420676
8	414	2.75	2.5985115069044
8	415	2.76	2.5905571544978
8	416	2.77	2.5826074980923
8	417	2.78	2.5746626717869
8	418	2.79	2.5667228091358
8	419	2.8	2.5587880431427
8	420	2.81	2.5508585062543
8	421	2.82	2.5429343303532
8	422	2.83	2.5350156467525
8	423	2.84	2.5271025861876
8	424	2.85	2.5191952788131
8	452	2.86	2.511293854193
8	453	2.87	2.5033984412982
8	454	2.88	2.4955091684976
8	455	2.89	2.4876261635541
8	456	2.9	2.4797495536177
8	457	2.91	2.4718794652209
8	458	2.92	2.4640160242722
8	459	2.93	2.4561593560502
8	487	2.94	2.4483095851991
8	488	2.95	2.4404668357231
8	489	2.96	2.432631230981
8	490	2.97	2.4248028936803
8	491	2.98	2.4169819458731
8	492	2.99	2.4091685089509
8	493	3	2.4013627036382
8	494	3.01	2.3935646499908
8	495	3.02	2.3857744673862
8	496	3.03	2.3779922745256
8	497	3.04	2.3702181894208
8	498	3.05	2.3624523293982
8	499	3.06	2.3546948110884
8	533	3.07	2.3469457504248
8	534	3.08	2.339205262637
8	535	3.09	2.3314734622488
8	536	3.1	2.3237504630742
8	537	3.11	2.3160363782111
8	538	3.12	2.3083313200402
8	539	3.13	2.300635400217
8	540	3.14	2.2929487296743
8	541	3.15	2.2852714186129
8	542	3.16	2.2776035764991
8	621	3.17	2.2699453120651
8	622	3.18	2.2622967333
8	623	3.19	2.2546579474508
8	624	3.2	2.2470290610165
8	664	3.21	2.2394101797467
8	665	3.22	2.2318014086373
8	666	3.23	2.2242028519273
8	667	3.24	2.2166146130985
8	668	3.25	2.2090367948678
8	669	3.26	2.201469499191
8	670	3.27	2.1939128272528
8	671	3.28	2.1863668794708
8	672	3.29	2.1788317554901
8	673	3.3	2.1713075541776
8	674	3.31	2.163794373628
8	675	3.32	2.1562923111524
8	676	3.33	2.148801463283
8	677	3.34	2.1413219257674
8	678	3.35	2.1338537935669
8	679	3.36	2.1263971608569
8	680	3.37	2.1189521210232
8	681	3.38	2.1115187666581
8	682	3.39	2.1040971895644
8	683	3.4	2.0966874807492
9	54	0.53	0.973
9	55	0.54	0.973
9	56	0.55	0.973
9	57	0.56	0.973
9	58	0.57	0.973
9	59	0.58	0.973
9	60	0.59	0.973
9	61	0.6	0.973
9	62	0.61	0.973
9	63	0.62	0.973
9	64	0.63	0.973
9	65	0.64	0.973
9	66	0.65	0.973
9	67	0.66	0.973
9	68	0.67	0.973
9	69	0.68	0.973
9	70	0.69	0.973
9	71	0.7	0.973
9	72	0.71	0.973
9	73	0.72	0.973
9	74	0.73	0.973
9	75	0.74	0.973
9	76	0.75	0.973
9	77	0.76	0.973
9	78	0.77	0.973
9	79	0.78	0.973
[...]
17	376	2.37	28.549530726079
17	377	2.38	28.530086281634
17	378	2.39	28.51064183719
17	379	2.4	28.491197392745
17	380	2.41	28.471752948301
17	381	2.42	28.452308503856
17	382	2.43	28.432864059412
17	383	2.44	28.413419614967
17	384	2.45	28.393975170523
17	385	2.46	28.374530726079
17	386	2.47	28.355086281634
17	387	2.48	28.33564183719
17	388	2.49	28.316197392745
17	389	2.5	28.296752948301
17	390	2.51	28.277308503856
17	391	2.52	28.257864059412
17	392	2.53	28.238419614967
17	393	2.54	28.218975170523
17	394	2.55	28.199530726079
17	395	2.56	28.180086281634
17	396	2.57	28.16064183719
17	397	2.58	28.141197392745
17	398	2.59	28.121752948301
17	399	2.6	28.102308503856
17	400	2.61	28.082864059412
17	401	2.62	28.063419614967
17	402	2.63	28.043975170523
17	403	2.64	28.024530726079
17	404	2.65	28.005086281634
17	405	2.66	27.98564183719
17	406	2.67	27.966197392745
17	407	2.68	27.946752948301
17	408	2.69	27.927308503856
17	409	2.7	27.907864059412
17	410	2.71	27.888419614967
17	411	2.72	27.868975170523
17	412	2.73	27.849530726079
17	413	2.74	27.830086281634
17	414	2.75	27.81064183719
17	415	2.76	27.791197392745
17	416	2.77	27.771752948301
17	417	2.78	27.752308503856
17	418	2.79	27.732864059412
17	419	2.8	27.713419614967
17	420	2.81	27.693975170523
17	421	2.82	27.674530726079
17	422	2.83	27.655086281634
17	423	2.84	27.63564183719
17	424	2.85	27.616197392745
17	452	2.86	27.596752948301
17	453	2.87	27.577308503856
17	454	2.88	27.557864059412
17	455	2.89	27.538419614967
17	456	2.9	27.518975170523
17	457	2.91	27.499530726079
17	458	2.92	27.480086281634
17	459	2.93	27.46064183719
17	487	2.94	27.441197392745
17	488	2.95	27.421752948301
17	489	2.96	27.402308503856
17	490	2.97	27.382864059412
17	491	2.98	27.363419614967
17	492	2.99	27.343975170523
17	493	3	27.324530726078
17	494	3.01	27.305086281634
17	495	3.02	27.28564183719
17	496	3.03	27.266197392745
17	497	3.04	27.246752948301
17	498	3.05	27.227308503856
17	499	3.06	27.207864059412
17	533	3.07	27.188419614967
17	534	3.08	27.168975170523
17	535	3.09	27.149530726078
17	536	3.1	27.130086281634
17	537	3.11	27.11064183719
17	538	3.12	27.091197392745
17	539	3.13	27.071752948301
17	540	3.14	27.052308503856
17	541	3.15	27.032864059412
17	542	3.16	27.013419614967
17	621	3.17	26.993975170523
17	622	3.18	26.974530726078
17	623	3.19	26.955086281634
17	624	3.2	26.93564183719
17	664	3.21	26.916197392745
17	665	3.22	26.896752948301
17	666	3.23	26.877308503856
17	667	3.24	26.857864059412
17	668	3.25	26.838419614967
17	669	3.26	26.818975170523
17	670	3.27	26.799530726078
17	671	3.28	26.780086281634
17	672	3.29	26.76064183719
17	673	3.3	26.741197392745
17	674	3.31	26.721752948301
17	675	3.32	26.702308503856
17	676	3.33	26.682864059412
17	677	3.34	26.663419614967
17	678	3.35	26.643975170523
17	679	3.36	26.624530726078
17	680	3.37	26.605086281634
17	681	3.38	26.58564183719
17	682	3.39	26.566197392745
17	683	3.4	26.546752948301
18	193	1.62	-1.9444444444446
18	194	1.63	-1.9444444444446
18	195	1.64	-1.9444444444446
18	196	1.65	-1.9444444444446
18	197	1.66	-1.9444444444446
18	198	1.67	-1.9444444444446
18	199	1.68	-1.9444444444446
18	200	1.69	-1.9444444444446
18	201	1.7	-1.9444444444446
18	202	1.71	-1.9444444444446
18	203	1.72	-1.9444444444446
18	204	1.73	-1.9444444444446
18	205	1.74	-1.9444444444446
18	206	1.75	-1.9444444444446
18	207	1.76	-1.9444444444446
18	208	1.77	-1.9444444444446
18	209	1.78	-1.9444444444446
18	210	1.79	-1.9444444444446
18	211	1.8	-1.9444444444446
18	212	1.81	-1.9444444444446
18	213	1.82	-1.9444444444446
18	214	1.83	-1.9444444444446
18	215	1.84	-1.9444444444446
18	216	1.85	-1.9444444444446
18	244	1.86	-1.9444444444446
18	245	1.87	-1.9444444444446
18	246	1.88	-1.9444444444446
18	247	1.89	-1.9444444444446
18	248	1.9	-1.9444444444446
18	249	1.91	-1.9444444444446
18	250	1.92	-1.9444444444446
18	251	1.93	-1.9444444444446
18	279	1.94	-1.9444444444446
18	280	1.95	-1.9444444444446
18	281	1.96	-1.9444444444446
18	282	1.97	-1.9444444444446
18	283	1.98	-1.9444444444446
18	284	1.99	-1.9444444444446
18	285	2	-1.9444444444446
18	286	2.01	-1.9444444444446
18	287	2.02	-1.9444444444446
18	288	2.03	-1.9444444444446
18	289	2.04	-1.9444444444446
18	290	2.05	-1.9444444444446
18	291	2.06	-1.9444444444446
18	319	2.07	-1.9444444444446
18	320	2.08	-1.9444444444446
18	321	2.09	-1.9444444444446
18	322	2.1	-1.9444444444446
18	323	2.11	-1.9444444444446
18	324	2.12	-1.9444444444446
18	325	2.13	-1.9444444444446
18	326	2.14	-1.9444444444446
18	327	2.15	-1.9444444444446
18	328	2.16	-1.9444444444446
18	356	2.17	-1.9444444444446
18	357	2.18	-1.9444444444446
18	358	2.19	-1.9444444444446
18	359	2.2	-1.9444444444446
18	360	2.21	-1.9444444444446
18	361	2.22	-1.9444444444446
18	362	2.23	-1.9444444444446
18	363	2.24	-1.9444444444446
18	364	2.25	-1.9444444444446
18	365	2.26	-1.9444444444446
18	366	2.27	-1.9444444444446
18	367	2.28	-1.9444444444446
18	368	2.29	-1.9444444444446
18	369	2.3	-1.9444444444446
18	370	2.31	-1.9444444444446
18	371	2.32	-1.9444444444446
18	372	2.33	-1.9444444444446
18	373	2.34	-1.9444444444446
18	374	2.35	-1.9444444444446
18	375	2.36	-1.9444444444446
18	376	2.37	-1.9444444444446
18	377	2.38	-1.9444444444446
18	378	2.39	-1.9444444444446
18	379	2.4	-1.9444444444446
18	380	2.41	-1.9444444444446
18	381	2.42	-1.9444444444446
18	382	2.43	-1.9444444444446
18	383	2.44	-1.9444444444446
18	384	2.45	-1.9444444444446
18	385	2.46	-1.9444444444446
18	386	2.47	-1.9444444444446
18	387	2.48	-1.9444444444446
18	388	2.49	-1.9444444444446
18	389	2.5	-1.9444444444446
18	390	2.51	-1.9444444444446
18	391	2.52	-1.9444444444446
18	392	2.53	-1.9444444444446
18	393	2.54	-1.9444444444446
18	394	2.55	-1.9444444444446
18	395	2.56	-1.9444444444446
18	396	2.57	-1.9444444444446
18	397	2.58	-1.9444444444446
18	398	2.59	-1.9444444444446
18	399	2.6	-1.9444444444446
18	400	2.61	-1.9444444444446
18	401	2.62	-1.9444444444446
18	402	2.63	-1.9444444444446
18	403	2.64	-1.9444444444446
18	404	2.65	-1.9444444444446
18	405	2.66	-1.9444444444446
18	406	2.67	-1.9444444444446
18	407	2.68	-1.9444444444446
18	408	2.69	-1.9444444444446
18	409	2.7	-1.9444444444446
18	410	2.71	-1.9444444444446
18	411	2.72	-1.9444444444446
18	412	2.73	-1.9444444444446
18	413	2.74	-1.9444444444446
18	414	2.75	-1.9444444444446
18	415	2.76	-1.9444444444446
18	416	2.77	-1.9444444444446
18	417	2.78	-1.9444444444446
18	418	2.79	-1.9444444444446
18	419	2.8	-1.9444444444446
18	420	2.81	-1.9444444444446
18	421	2.82	-1.9444444444446
18	422	2.83	-1.9444444444446
18	423	2.84	-1.9444444444446
18	424	2.85	-1.9444444444446
18	452	2.86	-1.9444444444446
18	453	2.87	-1.9444444444446
18	454	2.88	-1.9444444444446
18	455	2.89	-1.9444444444446
18	456	2.9	-1.9444444444446
18	457	2.91	-1.9444444444446
18	458	2.92	-1.9444444444446
18	459	2.93	-1.9444444444446
18	487	2.94	-1.9444444444446
18	488	2.95	-1.9444444444446
18	489	2.96	-1.9444444444446
18	490	2.97	-1.9444444444446
18	491	2.98	-1.9444444444446
18	492	2.99	-1.9444444444446
18	493	3	-1.9444444444446
18	494	3.01	-1.9444444444446
18	495	3.02	-1.9444444444446
18	496	3.03	-1.9444444444446
18	497	3.04	-1.9444444444446
18	498	3.05	-1.9444444444446
18	499	3.06	-1.9444444444446
18	533	3.07	-1.9444444444446
18	534	3.08	-1.9444444444446
18	535	3.09	-1.9444444444446
18	536	3.1	-1.9444444444446
18	537	3.11	-1.9444444444446
18	538	3.12	-1.9444444444446
18	539	3.13	-1.9444444444446
18	540	3.14	-1.9444444444446
18	541	3.15	-1.9444444444446
18	542	3.16	-1.9444444444446
18	621	3.17	-1.9444444444446
18	622	3.18	-1.9444444444446
18	623	3.19	-1.9444444444446
18	624	3.2	-1.9444444444446
18	664	3.21	-1.9444444444446
18	665	3.22	-1.9444444444446
18	666	3.23	-1.9444444444446
18	667	3.24	-1.9444444444446
18	668	3.25	-1.9444444444446
18	669	3.26	-1.9444444444446
18	670	3.27	-1.9444444444446
18	671	3.28	-1.9444444444446
18	672	3.29	-1.9444444444446
18	673	3.3	-1.9444444444446
18	674	3.31	-1.9444444444446
18	675	3.32	-1.9444444444446
18	676	3.33	-1.9444444444446
18	677	3.34	-1.9444444444446
18	678	3.35	-1.9444444444446
18	679	3.36	-1.9444444444446
18	680	3.37	-1.9444444444446
18	681	3.38	-1.9444444444446
18	682	3.39	-1.9444444444446
18	683	3.4	-1.9444444444446
19	193	1.62	0.973
19	194	1.63	0.973
19	195	1.64	0.973
19	196	1.65	0.973
19	197	1.66	0.973
19	198	1.67	0.973
19	199	1.68	0.973
19	200	1.69	0.973
19	201	1.7	0.973
19	202	1.71	0.973
19	203	1.72	0.973
19	204	1.73	0.973
19	205	1.74	0.973
19	206	1.75	0.973
19	207	1.76	0.973
19	208	1.77	0.973
19	209	1.78	0.973
19	210	1.79	0.973
19	211	1.8	0.973
19	212	1.81	0.973
19	213	1.82	0.973
19	214	1.83	0.973
19	215	1.84	0.973
19	216	1.85	0.973
19	244	1.86	0.973
19	245	1.87	0.973
19	246	1.88	0.973
19	247	1.89	0.973
19	248	1.9	0.973
19	249	1.91	0.973
19	250	1.92	0.973
19	251	1.93	0.973
19	279	1.94	0.973
19	280	1.95	0.973
19	281	1.96	0.973
19	282	1.97	0.973
19	283	1.98	0.973
19	284	1.99	0.973
19	285	2	0.973
19	286	2.01	0.973
19	287	2.02	0.973
19	288	2.03	0.973
19	289	2.04	0.973
19	290	2.05	0.973
19	291	2.06	0.973
19	319	2.07	0.973
19	320	2.08	0.973
19	321	2.09	0.973
19	322	2.1	0.973
19	323	2.11	0.973
19	324	2.12	0.973
19	325	2.13	0.973
19	326	2.14	0.973
19	327	2.15	0.973
19	328	2.16	0.973
19	356	2.17	0.973
19	357	2.18	0.973
19	358	2.19	0.973
19	359	2.2	0.973
19	360	2.21	0.973
19	361	2.22	0.973
19	362	2.23	0.973
19	363	2.24	0.973
19	364	2.25	0.973
19	365	2.26	0.973
19	366	2.27	0.973
19	367	2.28	0.973
19	368	2.29	0.973
19	369	2.3	0.973
19	370	2.31	0.973
19	371	2.32	0.973
19	372	2.33	0.973
19	373	2.34	0.973
19	374	2.35	0.973
19	375	2.36	0.973
19	376	2.37	0.973
19	377	2.38	0.973
19	378	2.39	0.973
19	379	2.4	0.973
19	380	2.41	0.973
19	381	2.42	0.973
19	382	2.43	0.973
19	383	2.44	0.973
19	384	2.45	0.973
19	385	2.46	0.973
19	386	2.47	0.973
19	387	2.48	0.973
19	388	2.49	0.973
19	389	2.5	0.973
19	390	2.51	0.973
19	391	2.52	0.973
19	392	2.53	0.973
19	393	2.54	0.973
19	394	2.55	0.973
19	395	2.56	0.973
19	396	2.57	0.973
19	397	2.58	0.973
19	398	2.59	0.973
19	399	2.6	0.973
19	400	2.61	0.973
19	401	2.62	0.973
19	402	2.63	0.973
19	403	2.64	0.973
19	404	2.65	0.973
19	405	2.66	0.973
19	406	2.67	0.973
19	407	2.68	0.973
19	408	2.69	0.973
19	409	2.7	0.973
19	410	2.71	0.973
19	411	2.72	0.973
19	412	2.73	0.973
19	413	2.74	0.973
19	414	2.75	0.973
19	415	2.76	0.973
19	416	2.77	0.973
19	417	2.78	0.973
19	418	2.79	0.973
19	419	2.8	0.973
19	420	2.81	0.973
19	421	2.82	0.973
19	422	2.83	0.973
19	423	2.84	0.973
19	424	2.85	0.973
19	452	2.86	0.973
19	453	2.87	0.973
19	454	2.88	0.973
19	455	2.89	0.973
19	456	2.9	0.973
19	457	2.91	0.973
19	458	2.92	0.973
19	459	2.93	0.973
19	487	2.94	0.973
19	488	2.95	0.973
19	489	2.96	0.973
19	490	2.97	0.973
19	491	2.98	0.973
19	492	2.99	0.973
19	493	3	0.973
19	494	3.01	0.973
19	495	3.02	0.973
19	496	3.03	0.973
19	497	3.04	0.973
19	498	3.05	0.973
19	499	3.06	0.973
19	533	3.07	0.973
19	534	3.08	0.973
19	535	3.09	0.973
19	536	3.1	0.973
19	537	3.11	0.973
19	538	3.12	0.973
19	539	3.13	0.973
19	540	3.14	0.973
19	541	3.15	0.973
19	542	3.16	0.973
19	621	3.17	0.973
19	622	3.18	0.973
19	623	3.19	0.973
19	624	3.2	0.973
19	664	3.21	0.973
19	665	3.22	0.973
19	666	3.23	0.973
19	667	3.24	0.973
19	668	3.25	0.973
19	669	3.26	0.973
19	670	3.27	0.973
19	671	3.28	0.973
19	672	3.29	0.973
19	673	3.3	0.973
19	674	3.31	0.973
19	675	3.32	0.973
19	676	3.33	0.973
19	677	3.34	0.973
19	678	3.35	0.973
19	679	3.36	0.973
19	680	3.37	0.973
19	681	3.38	0.973
19	682	3.39	0.973
19	683	3.4	0.973
20	499	3.06	191.15880186412
20	533	3.07	191.15880186412
20	534	3.08	190.36086783175
20	535	3.09	190.06526727297
20	536	3.1	189.76998651012
20	537	3.11	189.4752039467
20	538	3.12	189.18091267829
20	539	3.13	188.88710596342
20	540	3.14	188.59377721841
20	541	3.15	188.30092001239
20	542	3.16	188.00852806258
20	621	3.17	187.71659522975
20	622	3.18	187.42511551385
20	623	3.19	187.13408304981
20	624	3.2	186.84349210353
20	664	3.21	186.55333706798
20	665	3.22	186.26361245955
20	666	3.23	185.97431291442
20	667	3.24	185.68543318512
20	668	3.25	185.39696813726
20	669	3.26	185.10891274634
20	670	3.27	184.82126209464
20	671	3.28	184.5340113683
20	672	3.29	184.24715585449
20	673	3.3	183.96069093861
20	674	3.31	183.67461210172
20	675	3.32	183.3889149179
20	676	3.33	183.10359505186
20	677	3.34	182.81864825652
20	678	3.35	182.53407037072
20	679	3.36	182.24985731702
20	680	3.37	181.96600509954
20	681	3.38	181.68250980189
20	682	3.39	181.39936758519
20	683	3.4	181.1165746861
21	499	3.06	411.5436352633
21	533	3.07	411.5436352633
21	534	3.08	414.65708636771
21	535	3.09	414.61021120081
21	536	3.1	414.56338674589
21	537	3.11	414.51664129345
21	538	3.12	414.46997374864
21	539	3.13	414.42338304241
21	540	3.14	414.37686813074
21	541	3.15	414.33042799387
21	542	3.16	414.28406163548
21	621	3.17	414.23776808205
21	622	3.18	414.19154638211
21	623	3.19	414.14539560559
21	624	3.2	414.09931484322
21	664	3.21	414.05330320584
21	665	3.22	414.0073598239
21	666	3.23	413.96148384681
21	667	3.24	413.91567444245
21	668	3.25	413.86993079664
21	669	3.26	413.8242521126
21	670	3.27	413.77863761051
21	671	3.28	413.73308652699
21	672	3.29	413.68759811472
21	673	3.3	413.64217164192
21	674	3.31	413.596806392
21	675	3.32	413.55150166311
21	676	3.33	413.50625676778
21	677	3.34	413.46107103253
21	678	3.35	413.41594379749
21	679	3.36	413.37087441609
21	680	3.37	413.32586225466
21	681	3.38	413.28090669217
21	682	3.39	413.23600711986
21	683	3.4	413.19116294095
22	533	3.07	191.15880186412
22	534	3.08	191.15880186412
22	535	3.09	190.86288193346
22	536	3.1	190.56713234762
22	537	3.11	190.27157460997
22	538	3.12	189.97620872052
22	539	3.13	189.68103467926
22	540	3.14	189.38605248618
22	541	3.15	189.0912621413
22	542	3.16	188.79666364461
22	621	3.17	188.50225699611
22	622	3.18	188.2080421958
22	623	3.19	187.91401924368
22	624	3.2	187.62018813975
22	664	3.21	187.32654888401
22	665	3.22	187.03310147646
22	666	3.23	186.7398459171
22	667	3.24	186.44678220594
22	668	3.25	186.15391034296
22	669	3.26	185.86123032818
22	670	3.27	185.56874216158
22	671	3.28	185.27644584318
22	672	3.29	184.98434137297
22	673	3.3	184.69242875095
22	674	3.31	184.40070797712
22	675	3.32	184.10917905148
22	676	3.33	183.81784197403
22	677	3.34	183.52669674477
22	678	3.35	183.2357433637
22	679	3.36	182.94498183082
22	680	3.37	182.65441214614
22	681	3.38	182.36403430964
22	682	3.39	182.07384832133
22	683	3.4	181.78385418122
23	533	3.07	411.5436352633
23	534	3.08	411.5436352633
23	535	3.09	411.49670944976
23	536	3.1	411.44981064884
23	537	3.11	411.40294227044
23	538	3.12	411.35610431458
23	539	3.13	411.30929678124
23	540	3.14	411.26251967043
23	541	3.15	411.21577298214
23	542	3.16	411.16905671639
23	621	3.17	411.12237087316
23	622	3.18	411.07571545246
23	623	3.19	411.02909045429
23	624	3.2	410.98249587865
23	664	3.21	410.93593172554
23	665	3.22	410.88939799495
23	666	3.23	410.84289468689
23	667	3.24	410.79642180136
23	668	3.25	410.74997933836
23	669	3.26	410.70356729789
23	670	3.27	410.65718567995
23	671	3.28	410.61083448453
23	672	3.29	410.56451371164
23	673	3.3	410.51822336128
23	674	3.31	410.47196343345
23	675	3.32	410.42573392814
23	676	3.33	410.37953484537
23	677	3.34	410.33336618512
23	678	3.35	410.2872279474
23	679	3.36	410.24112013221
23	680	3.37	410.19504273955
23	681	3.38	410.14899576941
23	682	3.39	410.1029792218
23	683	3.4	410.05699309672
24	533	3.07	29.960494863928
24	534	3.08	29.946521429854
24	535	3.09	29.895684361681
24	536	3.1	29.845555312583
24	537	3.11	29.796117505146
24	538	3.12	29.747354695983
24	539	3.13	29.699251153385
24	540	3.14	29.651791636129
24	541	3.15	29.60496137338
24	542	3.16	29.558746045603
24	621	3.17	29.51313176644
24	622	3.18	29.468105065489
24	623	3.19	29.423652871928
24	624	3.2	29.379762498939
24	664	3.21	29.336421628884
24	665	3.22	29.293618299191
24	666	3.23	29.251340888905
24	667	3.24	29.209578105877
24	668	3.25	29.168318974542
24	669	3.26	29.127552824261
24	670	3.27	29.087269278199
24	671	3.28	29.047458242704
24	672	3.29	29.008109897158
24	673	3.3	28.969214684285
24	674	3.31	28.930763300882
24	675	3.32	28.892746688958
24	676	3.33	28.855156027249
24	677	3.34	28.817982723107
24	678	3.35	28.781218404727
24	679	3.36	28.744854913701
24	680	3.37	28.708884297891
24	681	3.38	28.67329880459
24	682	3.39	28.638090873966
24	683	3.4	28.603253132775
25	534	3.08	-1.3973434074082
25	535	3.09	-5.0837068172456
25	536	3.1	-5.0129049098327
25	537	3.11	-4.9437807436931
25	538	3.12	-4.8762809162884
25	539	3.13	-4.8103542598373
25	540	3.14	-4.7459517255323
25	541	3.15	-4.6830262748927
25	542	3.16	-4.6215327777325
25	621	3.17	-4.5614279162915
25	622	3.18	-4.5026700950856
25	623	3.19	-4.4452193560929
25	624	3.2	-4.3890372989036
25	664	3.21	-4.3340870055001
25	665	3.22	-4.2803329693584
25	666	3.23	-4.2277410285777
25	667	3.24	-4.1762783027838
25	668	3.25	-4.125913133548
25	669	3.26	-4.0766150281037
25	670	3.27	-4.0283546061463
25	671	3.28	-3.9811035495219
25	672	3.29	-3.9348345546202
25	673	3.3	-3.8895212873086
25	674	3.31	-3.8451383402467
25	675	3.32	-3.8016611924373
25	676	3.33	-3.7590661708759
25	677	3.34	-3.7173304141785
25	678	3.35	-3.6764318380627
25	679	3.36	-3.6363491025753
25	680	3.37	-3.5970615809692
25	681	3.38	-3.5585493301223
25	682	3.39	-3.5207930624235
25	683	3.4	-3.4837741190294
26	534	3.08	0.973
26	535	3.09	0.973
26	536	3.1	0.973
26	537	3.11	0.973
26	538	3.12	0.973
26	539	3.13	0.973
26	540	3.14	0.973
26	541	3.15	0.973
26	542	3.16	0.973
26	621	3.17	0.973
26	622	3.18	0.973
26	623	3.19	0.973
26	624	3.2	0.973
26	664	3.21	0.973
26	665	3.22	0.973
26	666	3.23	0.973
26	667	3.24	0.973
26	668	3.25	0.973
26	669	3.26	0.973
26	670	3.27	0.973
26	671	3.28	0.973
26	672	3.29	0.973
26	673	3.3	0.973
26	674	3.31	0.973
26	675	3.32	0.973
26	676	3.33	0.973
26	677	3.34	0.973
26	678	3.35	0.973
26	679	3.36	0.973
26	680	3.37	0.973
26	681	3.38	0.973
26	682	3.39	0.973
26	683	3.4	0.973
27	534	3.08	29.984914427606
27	535	3.09	29.965469983162
27	536	3.1	29.946025538718
27	537	3.11	29.926581094273
27	538	3.12	29.907136649829
27	539	3.13	29.887692205384
27	540	3.14	29.86824776094
27	541	3.15	29.848803316495
27	542	3.16	29.829358872051
27	621	3.17	29.809914427606
27	622	3.18	29.790469983162
27	623	3.19	29.771025538718
27	624	3.2	29.751581094273
27	664	3.21	29.732136649829
27	665	3.22	29.712692205384
27	666	3.23	29.69324776094
27	667	3.24	29.673803316495
27	668	3.25	29.654358872051
27	669	3.26	29.634914427606
27	670	3.27	29.615469983162
27	671	3.28	29.596025538717
27	672	3.29	29.576581094273
27	673	3.3	29.557136649829
27	674	3.31	29.537692205384
27	675	3.32	29.51824776094
27	676	3.33	29.498803316495
27	677	3.34	29.479358872051
27	678	3.35	29.459914427606
27	679	3.36	29.440469983162
27	680	3.37	29.421025538717
27	681	3.38	29.401581094273
27	682	3.39	29.382136649829
27	683	3.4	29.362692205384
28	535	3.09	-1.9444444444446
28	536	3.1	-1.9444444444446
28	537	3.11	-1.9444444444446
28	538	3.12	-1.9444444444446
28	539	3.13	-1.9444444444446
28	540	3.14	-1.9444444444446
28	541	3.15	-1.9444444444446
28	542	3.16	-1.9444444444446
28	621	3.17	-1.9444444444446
28	622	3.18	-1.9444444444446
28	623	3.19	-1.9444444444446
28	624	3.2	-1.9444444444446
28	664	3.21	-1.9444444444446
28	665	3.22	-1.9444444444446
28	666	3.23	-1.9444444444446
28	667	3.24	-1.9444444444446
28	668	3.25	-1.9444444444446
28	669	3.26	-1.9444444444446
28	670	3.27	-1.9444444444446
28	671	3.28	-1.9444444444446
28	672	3.29	-1.9444444444446
28	673	3.3	-1.9444444444446
28	674	3.31	-1.9444444444446
28	675	3.32	-1.9444444444446
28	676	3.33	-1.9444444444446
28	677	3.34	-1.9444444444446
28	678	3.35	-1.9444444444446
28	679	3.36	-1.9444444444446
28	680	3.37	-1.9444444444446
28	681	3.38	-1.9444444444446
28	682	3.39	-1.9444444444446
28	683	3.4	-1.9444444444446
29	535	3.09	0.973
29	536	3.1	0.973
29	537	3.11	0.973
29	538	3.12	0.973
29	539	3.13	0.973
29	540	3.14	0.973
29	541	3.15	0.973
29	542	3.16	0.973
29	621	3.17	0.973
29	622	3.18	0.973
29	623	3.19	0.973
29	624	3.2	0.973
29	664	3.21	0.973
29	665	3.22	0.973
29	666	3.23	0.973
29	667	3.24	0.973
29	668	3.25	0.973
29	669	3.26	0.973
29	670	3.27	0.973
29	671	3.28	0.973
29	672	3.29	0.973
29	673	3.3	0.973
29	674	3.31	0.973
29	675	3.32	0.973
29	676	3.33	0.973
29	677	3.34	0.973
29	678	3.35	0.973
29	679	3.36	0.973
29	680	3.37	0.973
29	681	3.38	0.973
29	682	3.39	0.973
29	683	3.4	0.973

