version 2
run Default-0-20201019-18:54:05-28890
attr configname Default
attr datetime 20201019-18:54:05
attr experiment Default
attr inifile omnetpp.ini
attr iterationvars ""
attr iterationvarsf ""
attr measurement ""
attr network Scenario
attr processid 28890
attr repetition 0
attr replication #0
attr resultdir results
attr runnumber 0
attr seedset 0
param *.playgroundSizeX 2500m
param *.playgroundSizeY 2500m
param *.playgroundSizeZ 50m
param *.annotations.draw true
param *.obstacles.debug false
param *.world.useTorus false
param *.world.use2D false
param *.traciScenarioManager.updateInterval 0.01s
param *.traciScenarioManager.host "\"localhost\""
param *.traciScenarioManager.port 9999
param *.traciScenarioManager.autoShutdown true
param *.traciScenarioManager.launchConfig "xmldoc(\"ring.launchd.xml\")"
param *.traciScenarioManager.configFile "\"ring.sumo.cfg\""
param *.traciScenarioManager.moduleType "\"smart_car=org.car2x.veins.nodes.Car normal_car=0 human_car=0\""
param *.traciScenarioManager.moduleName "\"smart_car=node normal_car=0 human_car=0\""
param *.traciScenarioManager.moduleDisplayString "\"\""
param *.connectionManager.sendDirect true
param *.connectionManager.maxInterfDist 2600m
param *.connectionManager.drawMaxIntfDist false
param *.**.nic.mac1609_4.useServiceChannel false
param *.**.nic.mac1609_4.txPower 20mW
param *.**.nic.mac1609_4.bitrate 6Mbps
param *.**.nic.phy80211p.minPowerLevel -110dBm
param *.**.nic.phy80211p.useNoiseFloor true
param *.**.nic.phy80211p.noiseFloor -98dBm
param *.**.nic.phy80211p.decider "xmldoc(\"config.xml\")"
param *.**.nic.phy80211p.analogueModels "xmldoc(\"config.xml\")"
param *.**.nic.phy80211p.usePropagationDelay true
param *.**.nic.phy80211p.antenna "xmldoc(\"antenna.xml\", \"/root/Antenna[@id='monopole']\")"
param *.node[*].nic.phy80211p.antennaOffsetY "0 m"
param *.node[*].nic.phy80211p.antennaOffsetZ "1.895 m"
param *.node[*].applType "\"PhantomTrafficAppLayer\""
param *.node[*].appl.headerLength "80 bit"
param *.node[*].appl.sendBeacons true
param *.node[*].appl.dataOnSch false
param *.node[*].appl.beaconInterval 1s
param *.node[*].veinsmobility.x 0
param *.node[*].veinsmobility.y 0
param *.node[*].veinsmobility.z 0
param *.node[*].veinsmobility.setHostSpeed false

vector 0 Scenario.node[0].veinsmobility posx ETV
vector 1 Scenario.node[0].veinsmobility posy ETV
vector 2 Scenario.node[0].appl driveChange ETV
vector 3 Scenario.node[1].veinsmobility posx ETV
vector 4 Scenario.node[1].veinsmobility posy ETV
vector 5 Scenario.node[1].appl driveChange ETV
vector 6 Scenario.node[2].veinsmobility posx ETV
vector 7 Scenario.node[2].veinsmobility posy ETV
vector 8 Scenario.node[2].appl driveChange ETV
vector 9 Scenario.node[0].veinsmobility speed ETV
vector 10 Scenario.node[1].veinsmobility speed ETV
vector 11 Scenario.node[3].veinsmobility posx ETV
vector 12 Scenario.node[3].veinsmobility posy ETV
vector 13 Scenario.node[3].appl driveChange ETV
vector 14 Scenario.node[0].veinsmobility acceleration ETV
vector 15 Scenario.node[0].veinsmobility co2emission ETV
vector 16 Scenario.node[1].veinsmobility acceleration ETV
vector 17 Scenario.node[1].veinsmobility co2emission ETV
vector 18 Scenario.node[2].veinsmobility speed ETV
vector 19 Scenario.node[2].veinsmobility acceleration ETV
vector 20 Scenario.node[2].veinsmobility co2emission ETV
vector 21 Scenario.node[3].veinsmobility speed ETV
vector 22 Scenario.node[3].veinsmobility acceleration ETV
vector 23 Scenario.node[3].veinsmobility co2emission ETV
vector 24 Scenario.node[1].appl vehicleCount ETV
vector 25 Scenario.node[1].appl averageSpeed ETV
vector 26 Scenario.node[1].appl aboveThreshold ETV
vector 27 Scenario.node[1].appl beaconSize ETV
vector 28 Scenario.node[1].appl csSize ETV
vector 29 Scenario.node[1].appl ctSize ETV
vector 30 Scenario.node[1].appl clSize ETV
vector 31 Scenario.node[2].appl vehicleCount ETV
vector 32 Scenario.node[2].appl averageSpeed ETV
vector 33 Scenario.node[2].appl aboveThreshold ETV
vector 34 Scenario.node[2].appl beaconSize ETV
vector 35 Scenario.node[2].appl csSize ETV
vector 36 Scenario.node[2].appl ctSize ETV
vector 37 Scenario.node[2].appl clSize ETV
vector 38 Scenario.node[0].appl vehicleCount ETV
vector 39 Scenario.node[0].appl averageSpeed ETV
vector 40 Scenario.node[0].appl aboveThreshold ETV
vector 41 Scenario.node[0].appl beaconSize ETV
vector 42 Scenario.node[0].appl csSize ETV
vector 43 Scenario.node[0].appl ctSize ETV
vector 44 Scenario.node[0].appl clSize ETV
vector 45 Scenario.node[3].appl vehicleCount ETV
vector 46 Scenario.node[3].appl averageSpeed ETV
vector 47 Scenario.node[3].appl aboveThreshold ETV
vector 48 Scenario.node[3].appl beaconSize ETV
vector 49 Scenario.node[3].appl csSize ETV
vector 50 Scenario.node[3].appl ctSize ETV
vector 51 Scenario.node[3].appl clSize ETV
39	78	0.507784299787	-nan
39	145	0.633679924793	29.789711994678
39	192	0.911886924849	29.789711994678
39	286	1.50777751275	29.789711994678
39	353	1.633673132787	32.39829868564
39	400	1.911880132832	32.39829868564
39	494	2.507783709223	32.39829868564
39	561	2.633679338135	34.242570580291
39	608	2.911886338284	34.242570580291
39	702	3.507776926469	34.242570580291
39	769	3.63367254194	35.45142283297
39	816	3.911879544583	35.45142283297
39	910	4.507783125366	35.45142283297
39	977	4.633678767952	36.202765520548
39	1024	4.911885773433	36.202765520548
39	1118	5.507776348676	36.202765520548
39	1185	5.633671964198	36.653240407029
39	1232	5.911878975434	36.653240407029
39	1326	6.507782547712	36.653240407029
39	1393	6.633678173394	36.877226924815
39	1440	6.911885192243	36.877226924815
39	1534	7.50777575308	36.877226924815
39	1601	7.63367138049	37.009455570055
39	1648	7.911878400931	37.009455570055
39	1742	8.50778196118	37.009455570055
39	1809	8.63367757614	37.073178952634
39	1856	8.91188460844	37.073178952634
39	1950	9.50777515667	37.073178952634
39	2017	9.633670789151	36.94159789035
39	2064	9.91189082953	36.94159789035
39	2158	10.507781375751	36.94159789035
39	2225	10.633676993098	36.782058297246
39	2272	10.911884038155	36.782058297246
39	2366	11.507774570688	36.782058297246
39	2433	11.63367019262	36.47999884037
39	2480	11.911890251035	36.47999884037
39	2574	12.507780778332	36.47999884037
39	2641	12.633676406884	36.221413479844
39	2688	12.911883461415	36.221413479844
39	2782	13.507773982418	36.221413479844
39	2849	13.633682597031	35.786792448883
39	2896	13.911889670351	35.786792448883
39	2990	14.507780174079	35.786792448883
39	3057	14.63367579764	34.7539315859
39	3104	14.911882881292	34.7539315859
39	3198	15.507773381027	34.7539315859
39	3265	15.633681996355	34.070287687877
39	3312	15.911889095986	34.070287687877
39	3406	16.507779566271	34.070287687877
39	3473	16.63367519115	32.217464319056
39	3520	16.911882336362	28.94668677655
39	3610	17.507772780286	28.94668677655
39	3677	17.633681396718	28.031182033225
39	3728	17.9118885743	27.837037843296
39	3818	18.507778993175	27.837037843296
39	3889	18.633674617303	27.220456744095
39	3936	18.911881799992	27.271317876484
39	4026	19.50777219879	27.271317876484
39	4097	19.633680813746	26.835058991605
39	4144	19.911888010193	26.944563386895
39	4234	20.507778429616	24.84810619559
39	4305	20.633674051806	24.637445061834
39	4352	20.911881252246	24.706947282925
39	4442	21.507771644255	24.983100634238
39	4513	21.633680258709	24.831320232295
39	4560	21.91188746462	24.884726694559
39	4650	22.507777857454	25.208530563642
39	4721	22.633673480386	25.102874794219
39	4768	22.911880690536	25.13978866038
39	4858	23.507784077666	25.430814712629
39	4929	23.633679695514	25.362243169466
39	4976	23.911886906158	25.386765922384
39	5066	24.507777282313	25.625182022938
39	5137	24.633672905736	25.586334019103
39	5184	24.911880117895	25.603487163734
39	5274	25.507783499422	25.791164587696
39	5345	25.633679125573	25.775654135484
39	5392	25.911886338949	25.789807366062
39	5482	26.507776709867	25.935878892441
39	5553	26.633672326029	25.938115872274
39	5600	26.911879540107	25.952440425117
39	5690	27.507782910257	26.067090752903
39	5761	27.633678531926	26.082233045348
39	5808	27.911885747912	26.098655392366
39	5898	28.507776118727	26.190645203068
39	5969	28.63367173311	26.214527910187
39	6016	28.911878948456	26.233900415317
39	6106	29.507782314963	26.309876289034
39	6177	29.63367793742	26.338909880803
39	6224	29.911885156724	26.361253807241
39	6314	30.507775526137	26.425840468436
39	6385	30.633671143942	26.456932120264
39	6432	30.911878361264	26.481683789191
39	6522	31.507781724679	26.537836037841
39	6593	31.633677348422	26.568012998567
39	6640	31.91188456594	26.594242121885
39	6730	32.507774930826	26.643551032845
39	6801	32.633670556695	26.669828237068
39	6848	32.911890776604	26.696416567549
39	6938	33.507781139083	26.739552752641
39	7009	33.63367675589	26.76055737036
39	7056	33.91188397564	26.78633593241
39	7146	34.507774332573	26.823679986719
39	7217	34.633682954426	26.839782260021
39	7264	34.911890177358	26.863630971367
39	7354	35.507780536993	26.895639706065
39	7425	35.633676151293	26.908001424193
39	7472	35.911883372677	26.928917558422
39	7562	36.50777372761	26.956203879978
39	7633	36.633682349038	26.966118632605
39	7680	36.911889575037	26.98326114365
39	7770	37.507779934382	27.006546465266
39	7841	37.633675550393	27.015144214497
39	7888	37.911882773268	27.027860207351
39	7978	38.507773129261	27.047898694174
39	8049	38.633681754431	27.056047206219
39	8096	38.911888977133	27.063885499973
39	8186	39.507779333654	27.081398383703
39	8257	39.63367495551	27.08969022966
39	8304	39.911882179429	27.092405519312
39	8394	40.507772535591	27.108034819755
39	8465	40.63368115504	27.116810904772
39	8512	40.911888377131	27.114360741029
39	8602	41.507778729672	27.128641930201
39	8673	41.633674353805	27.13803204106
39	8720	41.911881578153	27.130567809775
39	8810	42.507771935116	27.143918412159
39	8881	42.633680550051	27.153889066831
39	8928	42.911887771449	27.141741410484
39	9018	43.507778124672	27.15446199844
39	9089	43.633673747541	27.164864850103
39	9136	43.911880971628	27.14852358194
39	9226	44.507784330799	27.160807587911
39	9297	44.63367994556	27.171423469912
39	9344	44.911887165361	27.151512019548
39	9434	45.507777524552	27.163461018505
39	9505	45.633673150942	27.174036683965
39	9552	45.911880370852	27.151281456574
39	9642	46.507783733645	27.162923050309
39	9713	46.633679352665	27.173199514738
39	9760	46.911886570401	27.148395138707
39	9850	47.507776931591	27.159701215119
39	9921	47.633672553637	27.169433990736
39	9968	47.911879768961	27.143406099162
39	10058	48.507783132483	27.154309921476
39	10129	48.633678760458	27.163282228534
39	10176	48.911885975867	27.136849974272
39	10266	49.507776343732	27.147261172522
39	10337	49.633671959602	27.155291518856
39	10384	49.911879171956	27.129232300332
39	10474	50.507782538098	27.139049331051
39	10545	50.633678168856	27.145994834446
39	10592	50.911885382088	27.121013624633
39	10682	51.507775753532	27.130133618546
39	10753	51.633671367924	27.135890264
39	10800	51.911878577216	27.112595494781
39	10890	52.507781947952	27.120921638888
39	10961	52.633677582679	27.125422425149
39	11008	52.911884790373	27.104309672304
39	11098	53.507775169696	27.111756398248
39	11169	53.633670787456	27.114968098836
39	11216	53.911890994121	27.096411977617
39	11306	54.507781366118	27.10290828126
39	11377	54.633676989855	27.104827353426
39	11424	54.91188419507	27.089081220297
39	11514	55.507774575792	27.094572443562
39	11585	55.633670201868	27.095220471433
39	11632	55.911890406555	27.082422858736
39	11722	56.507780783849	27.086871243794
39	11793	56.63367640043	27.086290195683
39	11840	56.911883602809	27.076476460419
39	11930	57.507773985017	27.079860752416
39	12001	57.633682624219	27.078108258779
39	12048	57.91188982778	27.071225728718
39	12138	58.507780213169	27.073540065599
39	12209	58.633675827457	27.07068487462
39	12256	58.911883027793	27.066609802464
39	12346	59.507773408285	27.067862094512
39	12417	59.633682046301	27.063979828861
39	12464	59.911889246013	27.062534665234
38	78	0.507784299787	0
38	145	0.633679924793	1
38	192	0.911886924849	1
38	286	1.50777751275	1
38	353	1.633673132787	1
38	400	1.911880132832	1
38	494	2.507783709223	1
38	561	2.633679338135	1
38	608	2.911886338284	1
38	702	3.507776926469	1
38	769	3.63367254194	1
38	816	3.911879544583	1
38	910	4.507783125366	1
38	977	4.633678767952	1
38	1024	4.911885773433	1
38	1118	5.507776348676	1
38	1185	5.633671964198	1
38	1232	5.911878975434	1
38	1326	6.507782547712	1
38	1393	6.633678173394	1
38	1440	6.911885192243	1
38	1534	7.50777575308	1
38	1601	7.63367138049	1
38	1648	7.911878400931	1
38	1742	8.50778196118	1
38	1809	8.63367757614	1
38	1856	8.91188460844	1
38	1950	9.50777515667	1
38	2017	9.633670789151	1
38	2064	9.91189082953	1
38	2158	10.507781375751	1
38	2225	10.633676993098	1
38	2272	10.911884038155	1
38	2366	11.507774570688	1
38	2433	11.63367019262	1
38	2480	11.911890251035	1
38	2574	12.507780778332	1
38	2641	12.633676406884	1
38	2688	12.911883461415	1
38	2782	13.507773982418	1
38	2849	13.633682597031	1
38	2896	13.911889670351	1
38	2990	14.507780174079	1
38	3057	14.63367579764	1
38	3104	14.911882881292	1
38	3198	15.507773381027	1
38	3265	15.633681996355	1
38	3312	15.911889095986	1
38	3406	16.507779566271	1
38	3473	16.63367519115	1
38	3520	16.911882336362	2
38	3610	17.507772780286	2
38	3677	17.633681396718	2
38	3728	17.9118885743	2
38	3818	18.507778993175	2
38	3889	18.633674617303	2
38	3936	18.911881799992	2
38	4026	19.50777219879	2
38	4097	19.633680813746	2
38	4144	19.911888010193	2
38	4234	20.507778429616	3
38	4305	20.633674051806	3
38	4352	20.911881252246	3
38	4442	21.507771644255	3
38	4513	21.633680258709	3
38	4560	21.91188746462	3
38	4650	22.507777857454	3
38	4721	22.633673480386	3
38	4768	22.911880690536	3
38	4858	23.507784077666	3
38	4929	23.633679695514	3
38	4976	23.911886906158	3
38	5066	24.507777282313	3
38	5137	24.633672905736	3
38	5184	24.911880117895	3
38	5274	25.507783499422	3
38	5345	25.633679125573	3
38	5392	25.911886338949	3
38	5482	26.507776709867	3
38	5553	26.633672326029	3
38	5600	26.911879540107	3
38	5690	27.507782910257	3
38	5761	27.633678531926	3
38	5808	27.911885747912	3
38	5898	28.507776118727	3
38	5969	28.63367173311	3
38	6016	28.911878948456	3
38	6106	29.507782314963	3
38	6177	29.63367793742	3
38	6224	29.911885156724	3
38	6314	30.507775526137	3
38	6385	30.633671143942	3
38	6432	30.911878361264	3
38	6522	31.507781724679	3
38	6593	31.633677348422	3
38	6640	31.91188456594	3
38	6730	32.507774930826	3
38	6801	32.633670556695	3
38	6848	32.911890776604	3
38	6938	33.507781139083	3
38	7009	33.63367675589	3
38	7056	33.91188397564	3
38	7146	34.507774332573	3
38	7217	34.633682954426	3
38	7264	34.911890177358	3
38	7354	35.507780536993	3
38	7425	35.633676151293	3
38	7472	35.911883372677	3
38	7562	36.50777372761	3
38	7633	36.633682349038	3
38	7680	36.911889575037	3
38	7770	37.507779934382	3
38	7841	37.633675550393	3
38	7888	37.911882773268	3
38	7978	38.507773129261	3
38	8049	38.633681754431	3
38	8096	38.911888977133	3
38	8186	39.507779333654	3
38	8257	39.63367495551	3
38	8304	39.911882179429	3
38	8394	40.507772535591	3
38	8465	40.63368115504	3
38	8512	40.911888377131	3
38	8602	41.507778729672	3
38	8673	41.633674353805	3
38	8720	41.911881578153	3
38	8810	42.507771935116	3
38	8881	42.633680550051	3
38	8928	42.911887771449	3
38	9018	43.507778124672	3
38	9089	43.633673747541	3
38	9136	43.911880971628	3
38	9226	44.507784330799	3
38	9297	44.63367994556	3
38	9344	44.911887165361	3
38	9434	45.507777524552	3
38	9505	45.633673150942	3
38	9552	45.911880370852	3
38	9642	46.507783733645	3
38	9713	46.633679352665	3
38	9760	46.911886570401	3
38	9850	47.507776931591	3
38	9921	47.633672553637	3
38	9968	47.911879768961	3
38	10058	48.507783132483	3
38	10129	48.633678760458	3
38	10176	48.911885975867	3
38	10266	49.507776343732	3
38	10337	49.633671959602	3
38	10384	49.911879171956	3
38	10474	50.507782538098	3
38	10545	50.633678168856	3
38	10592	50.911885382088	3
38	10682	51.507775753532	3
38	10753	51.633671367924	3
38	10800	51.911878577216	3
38	10890	52.507781947952	3
38	10961	52.633677582679	3
38	11008	52.911884790373	3
38	11098	53.507775169696	3
38	11169	53.633670787456	3
38	11216	53.911890994121	3
38	11306	54.507781366118	3
38	11377	54.633676989855	3
38	11424	54.91188419507	3
38	11514	55.507774575792	3
38	11585	55.633670201868	3
38	11632	55.911890406555	3
38	11722	56.507780783849	3
38	11793	56.63367640043	3
38	11840	56.911883602809	3
38	11930	57.507773985017	3
38	12001	57.633682624219	3
38	12048	57.91188982778	3
38	12138	58.507780213169	3
38	12209	58.633675827457	3
38	12256	58.911883027793	3
38	12346	59.507773408285	3
38	12417	59.633682046301	3
38	12464	59.911889246013	3
40	78	0.507784299787	0
40	145	0.633679924793	0
40	192	0.911886924849	0
40	286	1.50777751275	0
40	353	1.633673132787	0
40	400	1.911880132832	0
40	494	2.507783709223	0
40	561	2.633679338135	0
40	608	2.911886338284	0
40	702	3.507776926469	0
40	769	3.63367254194	0
40	816	3.911879544583	0
40	910	4.507783125366	0
40	977	4.633678767952	0
40	1024	4.911885773433	0
40	1118	5.507776348676	0
40	1185	5.633671964198	0
40	1232	5.911878975434	0
40	1326	6.507782547712	0
40	1393	6.633678173394	0
40	1440	6.911885192243	0
40	1534	7.50777575308	0
40	1601	7.63367138049	0
40	1648	7.911878400931	0
40	1742	8.50778196118	0
40	1809	8.63367757614	0
40	1856	8.91188460844	0
40	1950	9.50777515667	0
40	2017	9.633670789151	0
40	2064	9.91189082953	0
40	2158	10.507781375751	0
40	2225	10.633676993098	0
40	2272	10.911884038155	0
40	2366	11.507774570688	0
40	2433	11.63367019262	0
40	2480	11.911890251035	0
40	2574	12.507780778332	0
40	2641	12.633676406884	0
40	2688	12.911883461415	0
40	2782	13.507773982418	0
40	2849	13.633682597031	0
40	2896	13.911889670351	0
40	2990	14.507780174079	0
40	3057	14.63367579764	0
40	3104	14.911882881292	0
40	3198	15.507773381027	0
40	3265	15.633681996355	0
40	3312	15.911889095986	0
40	3406	16.507779566271	0
40	3473	16.63367519115	0
40	3520	16.911882336362	0
40	3610	17.507772780286	0
40	3677	17.633681396718	0
40	3728	17.9118885743	0
40	3818	18.507778993175	0
40	3889	18.633674617303	0
40	3936	18.911881799992	0
40	4026	19.50777219879	0
40	4097	19.633680813746	0
40	4144	19.911888010193	0
40	4234	20.507778429616	0
40	4305	20.633674051806	0
40	4352	20.911881252246	0
40	4442	21.507771644255	0
40	4513	21.633680258709	0
40	4560	21.91188746462	0
40	4650	22.507777857454	0
40	4721	22.633673480386	0
40	4768	22.911880690536	0
40	4858	23.507784077666	0
40	4929	23.633679695514	0
40	4976	23.911886906158	0
40	5066	24.507777282313	0
40	5137	24.633672905736	0
40	5184	24.911880117895	0
40	5274	25.507783499422	0
40	5345	25.633679125573	0
40	5392	25.911886338949	0
40	5482	26.507776709867	0
40	5553	26.633672326029	0
40	5600	26.911879540107	0
40	5690	27.507782910257	0
40	5761	27.633678531926	0
40	5808	27.911885747912	0
40	5898	28.507776118727	0
40	5969	28.63367173311	0
40	6016	28.911878948456	0
40	6106	29.507782314963	0
40	6177	29.63367793742	0
40	6224	29.911885156724	0
40	6314	30.507775526137	0
40	6385	30.633671143942	0
40	6432	30.911878361264	0
40	6522	31.507781724679	0
40	6593	31.633677348422	0
40	6640	31.91188456594	0
40	6730	32.507774930826	0
40	6801	32.633670556695	0
40	6848	32.911890776604	0
40	6938	33.507781139083	0
40	7009	33.63367675589	0
40	7056	33.91188397564	0
40	7146	34.507774332573	0
40	7217	34.633682954426	0
40	7264	34.911890177358	0
40	7354	35.507780536993	0
40	7425	35.633676151293	0
40	7472	35.911883372677	0
40	7562	36.50777372761	0
40	7633	36.633682349038	0
40	7680	36.911889575037	0
40	7770	37.507779934382	0
40	7841	37.633675550393	0
40	7888	37.911882773268	0
40	7978	38.507773129261	0
40	8049	38.633681754431	0
40	8096	38.911888977133	0
40	8186	39.507779333654	0
40	8257	39.63367495551	0
40	8304	39.911882179429	0
40	8394	40.507772535591	0
40	8465	40.63368115504	0
40	8512	40.911888377131	0
40	8602	41.507778729672	0
40	8673	41.633674353805	0
40	8720	41.911881578153	0
40	8810	42.507771935116	0
40	8881	42.633680550051	0
40	8928	42.911887771449	0
40	9018	43.507778124672	0
40	9089	43.633673747541	0
40	9136	43.911880971628	0
40	9226	44.507784330799	0
40	9297	44.63367994556	0
40	9344	44.911887165361	0
40	9434	45.507777524552	0
40	9505	45.633673150942	0
40	9552	45.911880370852	0
40	9642	46.507783733645	0
40	9713	46.633679352665	0
40	9760	46.911886570401	0
40	9850	47.507776931591	0
40	9921	47.633672553637	0
40	9968	47.911879768961	0
40	10058	48.507783132483	0
40	10129	48.633678760458	0
40	10176	48.911885975867	0
40	10266	49.507776343732	0
40	10337	49.633671959602	0
40	10384	49.911879171956	0
40	10474	50.507782538098	0
40	10545	50.633678168856	0
40	10592	50.911885382088	0
40	10682	51.507775753532	0
40	10753	51.633671367924	0
40	10800	51.911878577216	0
40	10890	52.507781947952	0
40	10961	52.633677582679	0
40	11008	52.911884790373	0
40	11098	53.507775169696	0
40	11169	53.633670787456	0
40	11216	53.911890994121	0
40	11306	54.507781366118	0
40	11377	54.633676989855	0
40	11424	54.91188419507	0
40	11514	55.507774575792	0
40	11585	55.633670201868	0
40	11632	55.911890406555	0
40	11722	56.507780783849	0
40	11793	56.63367640043	0
40	11840	56.911883602809	0
40	11930	57.507773985017	0
40	12001	57.633682624219	0
40	12048	57.91188982778	0
40	12138	58.507780213169	0
40	12209	58.633675827457	0
40	12256	58.911883027793	0
40	12346	59.507773408285	0
40	12417	59.633682046301	0
40	12464	59.911889246013	0
43	78	0.507784299787	0
43	145	0.633679924793	0
43	192	0.911886924849	0
43	286	1.50777751275	0
43	353	1.633673132787	0
43	400	1.911880132832	0
43	494	2.507783709223	0
43	561	2.633679338135	0
43	608	2.911886338284	0
43	702	3.507776926469	0
43	769	3.63367254194	0
43	816	3.911879544583	0
43	910	4.507783125366	0
43	977	4.633678767952	0
43	1024	4.911885773433	0
43	1118	5.507776348676	0
43	1185	5.633671964198	0
43	1232	5.911878975434	0
43	1326	6.507782547712	0
43	1393	6.633678173394	0
43	1440	6.911885192243	0
43	1534	7.50777575308	0
43	1601	7.63367138049	0
43	1648	7.911878400931	0
43	1742	8.50778196118	0
43	1809	8.63367757614	0
43	1856	8.91188460844	0
43	1950	9.50777515667	0
43	2017	9.633670789151	0
43	2064	9.91189082953	0
43	2158	10.507781375751	0
43	2225	10.633676993098	0
43	2272	10.911884038155	0
43	2366	11.507774570688	0
43	2433	11.63367019262	0
43	2480	11.911890251035	0
43	2574	12.507780778332	0
43	2641	12.633676406884	0
43	2688	12.911883461415	0
43	2782	13.507773982418	0
43	2849	13.633682597031	0
43	2896	13.911889670351	0
43	2990	14.507780174079	0
43	3057	14.63367579764	0
43	3104	14.911882881292	0
43	3198	15.507773381027	0
43	3265	15.633681996355	0
43	3312	15.911889095986	0
43	3406	16.507779566271	0
43	3473	16.63367519115	0
43	3520	16.911882336362	0
43	3610	17.507772780286	0
43	3677	17.633681396718	0
43	3728	17.9118885743	0
43	3818	18.507778993175	0
43	3889	18.633674617303	0
43	3936	18.911881799992	0
43	4026	19.50777219879	0
43	4097	19.633680813746	0
43	4144	19.911888010193	0
43	4234	20.507778429616	0
43	4305	20.633674051806	0
43	4352	20.911881252246	0
43	4442	21.507771644255	0
43	4513	21.633680258709	0
43	4560	21.91188746462	0
43	4650	22.507777857454	0
43	4721	22.633673480386	0
43	4768	22.911880690536	0
43	4858	23.507784077666	0
43	4929	23.633679695514	0
43	4976	23.911886906158	0
43	5066	24.507777282313	0
43	5137	24.633672905736	0
43	5184	24.911880117895	0
43	5274	25.507783499422	0
43	5345	25.633679125573	0
43	5392	25.911886338949	0
43	5482	26.507776709867	0
43	5553	26.633672326029	0
43	5600	26.911879540107	0
43	5690	27.507782910257	0
43	5761	27.633678531926	0
43	5808	27.911885747912	0
43	5898	28.507776118727	0
43	5969	28.63367173311	0
43	6016	28.911878948456	0
43	6106	29.507782314963	0
43	6177	29.63367793742	0
43	6224	29.911885156724	0
43	6314	30.507775526137	0
43	6385	30.633671143942	0
43	6432	30.911878361264	0
43	6522	31.507781724679	0
43	6593	31.633677348422	0
43	6640	31.91188456594	0
43	6730	32.507774930826	0
43	6801	32.633670556695	0
43	6848	32.911890776604	0
43	6938	33.507781139083	0
43	7009	33.63367675589	0
43	7056	33.91188397564	0
43	7146	34.507774332573	0
43	7217	34.633682954426	0
43	7264	34.911890177358	0
43	7354	35.507780536993	0
43	7425	35.633676151293	0
43	7472	35.911883372677	0
43	7562	36.50777372761	0
43	7633	36.633682349038	0
43	7680	36.911889575037	0
43	7770	37.507779934382	0
43	7841	37.633675550393	0
43	7888	37.911882773268	0
43	7978	38.507773129261	0
43	8049	38.633681754431	0
43	8096	38.911888977133	0
43	8186	39.507779333654	0
43	8257	39.63367495551	0
43	8304	39.911882179429	0
43	8394	40.507772535591	0
43	8465	40.63368115504	0
43	8512	40.911888377131	0
43	8602	41.507778729672	0
43	8673	41.633674353805	0
43	8720	41.911881578153	0
43	8810	42.507771935116	0
43	8881	42.633680550051	0
43	8928	42.911887771449	0
43	9018	43.507778124672	0
43	9089	43.633673747541	0
43	9136	43.911880971628	0
43	9226	44.507784330799	0
43	9297	44.63367994556	0
43	9344	44.911887165361	0
43	9434	45.507777524552	0
43	9505	45.633673150942	0
43	9552	45.911880370852	0
43	9642	46.507783733645	0
43	9713	46.633679352665	0
43	9760	46.911886570401	0
43	9850	47.507776931591	0
43	9921	47.633672553637	0
43	9968	47.911879768961	0
43	10058	48.507783132483	0
43	10129	48.633678760458	0
43	10176	48.911885975867	0
43	10266	49.507776343732	0
43	10337	49.633671959602	0
43	10384	49.911879171956	0
43	10474	50.507782538098	0
43	10545	50.633678168856	0
43	10592	50.911885382088	0
43	10682	51.507775753532	0
43	10753	51.633671367924	0
43	10800	51.911878577216	0
43	10890	52.507781947952	0
43	10961	52.633677582679	0
43	11008	52.911884790373	0
43	11098	53.507775169696	0
43	11169	53.633670787456	0
43	11216	53.911890994121	0
43	11306	54.507781366118	0
43	11377	54.633676989855	0
43	11424	54.91188419507	0
43	11514	55.507774575792	0
43	11585	55.633670201868	0
43	11632	55.911890406555	0
43	11722	56.507780783849	0
43	11793	56.63367640043	0
43	11840	56.911883602809	0
43	11930	57.507773985017	0
43	12001	57.633682624219	0
43	12048	57.91188982778	0
43	12138	58.507780213169	0
43	12209	58.633675827457	0
43	12256	58.911883027793	0
43	12346	59.507773408285	0
43	12417	59.633682046301	0
43	12464	59.911889246013	0
44	78	0.507784299787	0
44	145	0.633679924793	0
44	192	0.911886924849	0
44	286	1.50777751275	0
44	353	1.633673132787	0
44	400	1.911880132832	0
44	494	2.507783709223	0
44	561	2.633679338135	0
44	608	2.911886338284	0
44	702	3.507776926469	0
44	769	3.63367254194	0
44	816	3.911879544583	0
44	910	4.507783125366	0
44	977	4.633678767952	0
44	1024	4.911885773433	0
44	1118	5.507776348676	0
44	1185	5.633671964198	0
44	1232	5.911878975434	0
44	1326	6.507782547712	0
44	1393	6.633678173394	0
44	1440	6.911885192243	0
44	1534	7.50777575308	0
44	1601	7.63367138049	0
44	1648	7.911878400931	0
44	1742	8.50778196118	0
44	1809	8.63367757614	0
44	1856	8.91188460844	0
44	1950	9.50777515667	0
44	2017	9.633670789151	0
44	2064	9.91189082953	0
44	2158	10.507781375751	0
44	2225	10.633676993098	0
44	2272	10.911884038155	0
44	2366	11.507774570688	0
44	2433	11.63367019262	0
44	2480	11.911890251035	0
44	2574	12.507780778332	0
44	2641	12.633676406884	0
44	2688	12.911883461415	0
44	2782	13.507773982418	0
44	2849	13.633682597031	0
44	2896	13.911889670351	0
44	2990	14.507780174079	0
44	3057	14.63367579764	0
44	3104	14.911882881292	0
44	3198	15.507773381027	0
44	3265	15.633681996355	0
44	3312	15.911889095986	0
44	3406	16.507779566271	0
44	3473	16.63367519115	0
44	3520	16.911882336362	0
44	3610	17.507772780286	0
44	3677	17.633681396718	0
44	3728	17.9118885743	0
44	3818	18.507778993175	0
44	3889	18.633674617303	0
44	3936	18.911881799992	0
44	4026	19.50777219879	0
44	4097	19.633680813746	0
44	4144	19.911888010193	0
44	4234	20.507778429616	0
44	4305	20.633674051806	0
44	4352	20.911881252246	0
44	4442	21.507771644255	0
44	4513	21.633680258709	0
44	4560	21.91188746462	0
44	4650	22.507777857454	0
44	4721	22.633673480386	0
44	4768	22.911880690536	0
44	4858	23.507784077666	0
44	4929	23.633679695514	0
44	4976	23.911886906158	0
44	5066	24.507777282313	0
44	5137	24.633672905736	0
44	5184	24.911880117895	0
44	5274	25.507783499422	0
44	5345	25.633679125573	0
44	5392	25.911886338949	0
44	5482	26.507776709867	0
44	5553	26.633672326029	0
44	5600	26.911879540107	0
44	5690	27.507782910257	0
44	5761	27.633678531926	0
44	5808	27.911885747912	0
44	5898	28.507776118727	0
44	5969	28.63367173311	0
44	6016	28.911878948456	0
44	6106	29.507782314963	0
44	6177	29.63367793742	0
44	6224	29.911885156724	0
44	6314	30.507775526137	0
44	6385	30.633671143942	0
44	6432	30.911878361264	0
44	6522	31.507781724679	0
44	6593	31.633677348422	0
44	6640	31.91188456594	0
44	6730	32.507774930826	0
44	6801	32.633670556695	0
44	6848	32.911890776604	0
44	6938	33.507781139083	0
44	7009	33.63367675589	0
44	7056	33.91188397564	0
44	7146	34.507774332573	0
44	7217	34.633682954426	0
44	7264	34.911890177358	0
44	7354	35.507780536993	0
44	7425	35.633676151293	0
44	7472	35.911883372677	0
44	7562	36.50777372761	0
44	7633	36.633682349038	0
44	7680	36.911889575037	0
44	7770	37.507779934382	0
44	7841	37.633675550393	0
44	7888	37.911882773268	0
44	7978	38.507773129261	0
44	8049	38.633681754431	0
44	8096	38.911888977133	0
44	8186	39.507779333654	0
44	8257	39.63367495551	0
44	8304	39.911882179429	0
44	8394	40.507772535591	0
44	8465	40.63368115504	0
44	8512	40.911888377131	0
44	8602	41.507778729672	0
44	8673	41.633674353805	0
44	8720	41.911881578153	0
44	8810	42.507771935116	0
44	8881	42.633680550051	0
44	8928	42.911887771449	0
44	9018	43.507778124672	0
44	9089	43.633673747541	0
44	9136	43.911880971628	0
44	9226	44.507784330799	0
44	9297	44.63367994556	0
44	9344	44.911887165361	0
44	9434	45.507777524552	0
44	9505	45.633673150942	0
44	9552	45.911880370852	0
44	9642	46.507783733645	0
44	9713	46.633679352665	0
44	9760	46.911886570401	0
44	9850	47.507776931591	0
44	9921	47.633672553637	0
44	9968	47.911879768961	0
44	10058	48.507783132483	0
44	10129	48.633678760458	0
44	10176	48.911885975867	0
44	10266	49.507776343732	0
44	10337	49.633671959602	0
44	10384	49.911879171956	0
44	10474	50.507782538098	0
44	10545	50.633678168856	0
44	10592	50.911885382088	0
44	10682	51.507775753532	0
44	10753	51.633671367924	0
44	10800	51.911878577216	0
44	10890	52.507781947952	0
44	10961	52.633677582679	0
44	11008	52.911884790373	0
44	11098	53.507775169696	0
44	11169	53.633670787456	0
44	11216	53.911890994121	0
44	11306	54.507781366118	0
44	11377	54.633676989855	0
44	11424	54.91188419507	0
44	11514	55.507774575792	0
44	11585	55.633670201868	0
44	11632	55.911890406555	0
44	11722	56.507780783849	0
44	11793	56.63367640043	0
44	11840	56.911883602809	0
44	11930	57.507773985017	0
44	12001	57.633682624219	0
44	12048	57.91188982778	0
44	12138	58.507780213169	0
44	12209	58.633675827457	0
44	12256	58.911883027793	0
44	12346	59.507773408285	0
44	12417	59.633682046301	0
44	12464	59.911889246013	0
42	78	0.507784299787	0
42	145	0.633679924793	0
42	192	0.911886924849	0
42	286	1.50777751275	0
42	353	1.633673132787	0
42	400	1.911880132832	0
42	494	2.507783709223	0
42	561	2.633679338135	0
42	608	2.911886338284	0
42	702	3.507776926469	0
42	769	3.63367254194	0
42	816	3.911879544583	0
42	910	4.507783125366	0
42	977	4.633678767952	0
42	1024	4.911885773433	0
42	1118	5.507776348676	0
42	1185	5.633671964198	0
42	1232	5.911878975434	0
42	1326	6.507782547712	0
42	1393	6.633678173394	0
42	1440	6.911885192243	0
42	1534	7.50777575308	0
42	1601	7.63367138049	0
42	1648	7.911878400931	0
42	1742	8.50778196118	0
42	1809	8.63367757614	0
42	1856	8.91188460844	0
42	1950	9.50777515667	0
42	2017	9.633670789151	0
42	2064	9.91189082953	0
42	2158	10.507781375751	0
42	2225	10.633676993098	0
42	2272	10.911884038155	0
42	2366	11.507774570688	0
42	2433	11.63367019262	0
42	2480	11.911890251035	0
42	2574	12.507780778332	0
42	2641	12.633676406884	0
42	2688	12.911883461415	0
42	2782	13.507773982418	0
42	2849	13.633682597031	0
42	2896	13.911889670351	0
42	2990	14.507780174079	0
42	3057	14.63367579764	0
42	3104	14.911882881292	0
42	3198	15.507773381027	0
42	3265	15.633681996355	0
42	3312	15.911889095986	0
42	3406	16.507779566271	0
42	3473	16.63367519115	0
42	3520	16.911882336362	0
42	3610	17.507772780286	0
42	3677	17.633681396718	0
42	3728	17.9118885743	0
42	3818	18.507778993175	0
42	3889	18.633674617303	0
42	3936	18.911881799992	0
42	4026	19.50777219879	0
42	4097	19.633680813746	0
42	4144	19.911888010193	0
42	4234	20.507778429616	0
42	4305	20.633674051806	0
42	4352	20.911881252246	0
42	4442	21.507771644255	0
42	4513	21.633680258709	0
42	4560	21.91188746462	0
42	4650	22.507777857454	0
42	4721	22.633673480386	0
42	4768	22.911880690536	0
42	4858	23.507784077666	0
42	4929	23.633679695514	0
42	4976	23.911886906158	0
42	5066	24.507777282313	0
42	5137	24.633672905736	0
42	5184	24.911880117895	0
42	5274	25.507783499422	0
42	5345	25.633679125573	0
42	5392	25.911886338949	0
42	5482	26.507776709867	0
42	5553	26.633672326029	0
42	5600	26.911879540107	0
42	5690	27.507782910257	0
42	5761	27.633678531926	0
42	5808	27.911885747912	0
42	5898	28.507776118727	0
42	5969	28.63367173311	0
42	6016	28.911878948456	0
42	6106	29.507782314963	0
42	6177	29.63367793742	0
42	6224	29.911885156724	0
42	6314	30.507775526137	0
42	6385	30.633671143942	0
42	6432	30.911878361264	0
42	6522	31.507781724679	0
42	6593	31.633677348422	0
42	6640	31.91188456594	0
42	6730	32.507774930826	0
42	6801	32.633670556695	0
42	6848	32.911890776604	0
42	6938	33.507781139083	0
42	7009	33.63367675589	0
42	7056	33.91188397564	0
42	7146	34.507774332573	0
42	7217	34.633682954426	0
42	7264	34.911890177358	0
42	7354	35.507780536993	0
42	7425	35.633676151293	0
42	7472	35.911883372677	0
42	7562	36.50777372761	0
42	7633	36.633682349038	0
42	7680	36.911889575037	0
42	7770	37.507779934382	0
42	7841	37.633675550393	0
42	7888	37.911882773268	0
42	7978	38.507773129261	0
42	8049	38.633681754431	0
42	8096	38.911888977133	0
42	8186	39.507779333654	0
42	8257	39.63367495551	0
42	8304	39.911882179429	0
42	8394	40.507772535591	0
42	8465	40.63368115504	0
42	8512	40.911888377131	0
42	8602	41.507778729672	0
42	8673	41.633674353805	0
42	8720	41.911881578153	0
42	8810	42.507771935116	0
42	8881	42.633680550051	0
42	8928	42.911887771449	0
42	9018	43.507778124672	0
42	9089	43.633673747541	0
42	9136	43.911880971628	0
42	9226	44.507784330799	0
42	9297	44.63367994556	0
42	9344	44.911887165361	0
42	9434	45.507777524552	0
42	9505	45.633673150942	0
42	9552	45.911880370852	0
42	9642	46.507783733645	0
42	9713	46.633679352665	0
42	9760	46.911886570401	0
42	9850	47.507776931591	0
42	9921	47.633672553637	0
42	9968	47.911879768961	0
42	10058	48.507783132483	0
42	10129	48.633678760458	0
42	10176	48.911885975867	0
42	10266	49.507776343732	0
42	10337	49.633671959602	0
42	10384	49.911879171956	0
42	10474	50.507782538098	0
42	10545	50.633678168856	0
42	10592	50.911885382088	0
42	10682	51.507775753532	0
42	10753	51.633671367924	0
42	10800	51.911878577216	0
42	10890	52.507781947952	0
42	10961	52.633677582679	0
42	11008	52.911884790373	0
42	11098	53.507775169696	0
42	11169	53.633670787456	0
42	11216	53.911890994121	0
42	11306	54.507781366118	0
42	11377	54.633676989855	0
42	11424	54.91188419507	0
42	11514	55.507774575792	0
42	11585	55.633670201868	0
42	11632	55.911890406555	0
42	11722	56.507780783849	0
42	11793	56.63367640043	0
42	11840	56.911883602809	0
42	11930	57.507773985017	0
42	12001	57.633682624219	0
42	12048	57.91188982778	0
42	12138	58.507780213169	0
42	12209	58.633675827457	0
42	12256	58.911883027793	0
42	12346	59.507773408285	0
42	12417	59.633682046301	0
42	12464	59.911889246013	0
41	78	0.507784299787	1
41	145	0.633679924793	2
41	192	0.911886924849	3
41	286	1.50777751275	3
41	353	1.633673132787	3
41	400	1.911880132832	3
41	494	2.507783709223	3
41	561	2.633679338135	3
41	608	2.911886338284	3
41	702	3.507776926469	3
41	769	3.63367254194	3
41	816	3.911879544583	3
41	910	4.507783125366	3
41	977	4.633678767952	3
41	1024	4.911885773433	3
41	1118	5.507776348676	3
41	1185	5.633671964198	3
41	1232	5.911878975434	3
41	1326	6.507782547712	3
41	1393	6.633678173394	3
41	1440	6.911885192243	3
41	1534	7.50777575308	3
41	1601	7.63367138049	3
41	1648	7.911878400931	3
41	1742	8.50778196118	3
41	1809	8.63367757614	3
41	1856	8.91188460844	3
41	1950	9.50777515667	3
41	2017	9.633670789151	3
41	2064	9.91189082953	3
41	2158	10.507781375751	3
41	2225	10.633676993098	3
41	2272	10.911884038155	3
41	2366	11.507774570688	3
41	2433	11.63367019262	3
41	2480	11.911890251035	3
41	2574	12.507780778332	3
41	2641	12.633676406884	3
41	2688	12.911883461415	3
41	2782	13.507773982418	3
41	2849	13.633682597031	3
41	2896	13.911889670351	3
41	2990	14.507780174079	3
41	3057	14.63367579764	3
41	3104	14.911882881292	3
41	3198	15.507773381027	3
41	3265	15.633681996355	3
41	3312	15.911889095986	3
41	3406	16.507779566271	3
41	3473	16.63367519115	3
41	3520	16.911882336362	3
41	3610	17.507772780286	3
41	3677	17.633681396718	3
41	3728	17.9118885743	3
41	3818	18.507778993175	3
41	3889	18.633674617303	3
41	3936	18.911881799992	3
41	4026	19.50777219879	3
41	4097	19.633680813746	3
41	4144	19.911888010193	3
41	4234	20.507778429616	3
41	4305	20.633674051806	3
41	4352	20.911881252246	3
41	4442	21.507771644255	3
41	4513	21.633680258709	3
41	4560	21.91188746462	3
41	4650	22.507777857454	3
41	4721	22.633673480386	3
41	4768	22.911880690536	3
41	4858	23.507784077666	3
41	4929	23.633679695514	3
41	4976	23.911886906158	3
41	5066	24.507777282313	3
41	5137	24.633672905736	3
41	5184	24.911880117895	3
41	5274	25.507783499422	3
41	5345	25.633679125573	3
41	5392	25.911886338949	3
41	5482	26.507776709867	3
41	5553	26.633672326029	3
41	5600	26.911879540107	3
41	5690	27.507782910257	3
41	5761	27.633678531926	3
41	5808	27.911885747912	3
41	5898	28.507776118727	3
41	5969	28.63367173311	3
41	6016	28.911878948456	3
41	6106	29.507782314963	3
41	6177	29.63367793742	3
41	6224	29.911885156724	3
41	6314	30.507775526137	3
41	6385	30.633671143942	3
41	6432	30.911878361264	3
41	6522	31.507781724679	3
41	6593	31.633677348422	3
41	6640	31.91188456594	3
41	6730	32.507774930826	3
41	6801	32.633670556695	3
41	6848	32.911890776604	3
41	6938	33.507781139083	3
41	7009	33.63367675589	3
41	7056	33.91188397564	3
41	7146	34.507774332573	3
41	7217	34.633682954426	3
41	7264	34.911890177358	3
41	7354	35.507780536993	3
41	7425	35.633676151293	3
41	7472	35.911883372677	3
41	7562	36.50777372761	3
41	7633	36.633682349038	3
41	7680	36.911889575037	3
41	7770	37.507779934382	3
41	7841	37.633675550393	3
41	7888	37.911882773268	3
41	7978	38.507773129261	3
41	8049	38.633681754431	3
41	8096	38.911888977133	3
41	8186	39.507779333654	3
41	8257	39.63367495551	3
41	8304	39.911882179429	3
41	8394	40.507772535591	3
41	8465	40.63368115504	3
41	8512	40.911888377131	3
41	8602	41.507778729672	3
41	8673	41.633674353805	3
41	8720	41.911881578153	3
41	8810	42.507771935116	3
41	8881	42.633680550051	3
41	8928	42.911887771449	3
41	9018	43.507778124672	3
41	9089	43.633673747541	3
41	9136	43.911880971628	3
41	9226	44.507784330799	3
41	9297	44.63367994556	3
41	9344	44.911887165361	3
41	9434	45.507777524552	3
41	9505	45.633673150942	3
41	9552	45.911880370852	3
41	9642	46.507783733645	3
41	9713	46.633679352665	3
41	9760	46.911886570401	3
41	9850	47.507776931591	3
41	9921	47.633672553637	3
41	9968	47.911879768961	3
41	10058	48.507783132483	3
41	10129	48.633678760458	3
41	10176	48.911885975867	3
41	10266	49.507776343732	3
41	10337	49.633671959602	3
41	10384	49.911879171956	3
41	10474	50.507782538098	3
41	10545	50.633678168856	3
41	10592	50.911885382088	3
41	10682	51.507775753532	3
41	10753	51.633671367924	3
41	10800	51.911878577216	3
41	10890	52.507781947952	3
41	10961	52.633677582679	3
41	11008	52.911884790373	3
41	11098	53.507775169696	3
41	11169	53.633670787456	3
41	11216	53.911890994121	3
41	11306	54.507781366118	3
41	11377	54.633676989855	3
41	11424	54.91188419507	3
41	11514	55.507774575792	3
41	11585	55.633670201868	3
41	11632	55.911890406555	3
41	11722	56.507780783849	3
41	11793	56.63367640043	3
41	11840	56.911883602809	3
41	11930	57.507773985017	3
41	12001	57.633682624219	3
41	12048	57.91188982778	3
41	12138	58.507780213169	3
41	12209	58.633675827457	3
41	12256	58.911883027793	3
41	12346	59.507773408285	3
41	12417	59.633682046301	3
41	12464	59.911889246013	3
2	2	0.01	0
2	3	0.02	0
2	4	0.03	0
2	5	0.04	0
2	6	0.05	0
2	7	0.06	0
2	8	0.07	0
2	9	0.08	0
2	10	0.09	0
2	11	0.1	0
2	12	0.11	0
2	13	0.12	0
2	14	0.13	0
2	15	0.14	0
2	16	0.15	0
2	17	0.16	0
2	18	0.17	0
2	19	0.18	0
2	20	0.19	0
2	21	0.2	0
2	22	0.21	0
2	23	0.22	0
2	24	0.23	0
2	25	0.24	0
2	26	0.25	0
2	27	0.26	0
2	28	0.27	0
2	29	0.28	0
2	30	0.29	0
2	31	0.3	0
2	32	0.31	0
2	33	0.32	0
2	34	0.33	0
2	35	0.34	0
2	36	0.35	0
2	37	0.36	0
2	38	0.37	0
2	39	0.38	0
2	40	0.39	0
2	41	0.4	0
2	42	0.41	0
2	43	0.42	0
2	44	0.43	0
2	45	0.44	0
2	46	0.45	0
2	47	0.46	0
2	48	0.47	0
2	49	0.48	0
2	50	0.49	0
2	51	0.5	0
2	79	0.51	0
2	80	0.52	0
2	81	0.53	0
2	82	0.54	0
2	83	0.55	0
2	84	0.56	0
2	85	0.57	0
2	86	0.58	0
2	87	0.59	0
2	88	0.6	0
2	89	0.61	0
2	117	0.62	0
2	118	0.63	0
2	146	0.64	0
2	147	0.65	0
2	148	0.66	0
2	149	0.67	0
2	150	0.68	0
2	151	0.69	0
2	152	0.7	0
2	153	0.71	0
2	154	0.72	0
2	155	0.73	0
2	156	0.74	0
2	157	0.75	0
2	158	0.76	0
2	159	0.77	0
2	160	0.78	0
2	161	0.79	0
2	162	0.8	0
2	163	0.81	0
2	164	0.82	0
2	165	0.83	0
2	166	0.84	0
2	167	0.85	0
2	168	0.86	0
2	169	0.87	0
2	170	0.88	0
2	171	0.89	0
2	172	0.9	0
2	173	0.91	0
2	201	0.92	0
2	202	0.93	0
2	203	0.94	0
2	204	0.95	0
2	205	0.96	0
2	206	0.97	0
2	207	0.98	0
2	208	0.99	0
2	209	1	0
2	210	1.01	0
2	211	1.02	0
2	212	1.03	0
2	213	1.04	0
2	214	1.05	0
2	215	1.06	0
2	216	1.07	0
2	217	1.08	0
2	218	1.09	0
2	219	1.1	0
2	220	1.11	0
2	221	1.12	0
2	222	1.13	0
2	223	1.14	0
2	224	1.15	0
2	225	1.16	0
2	226	1.17	0
2	227	1.18	0
2	228	1.19	0
2	229	1.2	0
2	230	1.21	0
2	231	1.22	0
2	232	1.23	0
2	233	1.24	0
2	234	1.25	0
2	235	1.26	0
2	236	1.27	0
2	237	1.28	0
2	238	1.29	0
2	239	1.3	0
2	240	1.31	0
2	241	1.32	0
2	242	1.33	0
2	243	1.34	0
2	244	1.35	0
2	245	1.36	0
2	246	1.37	0
2	247	1.38	0
2	248	1.39	0
2	249	1.4	0
2	250	1.41	0
2	251	1.42	0
2	252	1.43	0
2	253	1.44	0
2	254	1.45	0
2	255	1.46	0
2	256	1.47	0
2	257	1.48	0
2	258	1.49	0
2	259	1.5	0
2	287	1.51	0
2	288	1.52	0
2	289	1.53	0
2	290	1.54	0
2	291	1.55	0
2	292	1.56	0
2	293	1.57	0
2	294	1.58	0
2	295	1.59	0
2	296	1.6	0
2	297	1.61	0
2	325	1.62	0
2	326	1.63	0
2	354	1.64	0
2	355	1.65	0
2	356	1.66	0
2	357	1.67	0
2	358	1.68	0
2	359	1.69	0
2	360	1.7	0
2	361	1.71	0
2	362	1.72	0
2	363	1.73	0
2	364	1.74	0
2	365	1.75	0
2	366	1.76	0
2	367	1.77	0
2	368	1.78	0
2	369	1.79	0
2	370	1.8	0
2	371	1.81	0
2	372	1.82	0
2	373	1.83	0
2	374	1.84	0
2	375	1.85	0
2	376	1.86	0
2	377	1.87	0
2	378	1.88	0
2	379	1.89	0
2	380	1.9	0
2	381	1.91	0
2	409	1.92	0
2	410	1.93	0
2	411	1.94	0
2	412	1.95	0
2	413	1.96	0
2	414	1.97	0
2	415	1.98	0
2	416	1.99	0
2	417	2	0
2	418	2.01	0
2	419	2.02	0
2	420	2.03	0
2	421	2.04	0
2	422	2.05	0
2	423	2.06	0
2	424	2.07	0
2	425	2.08	0
2	426	2.09	0
2	427	2.1	0
2	428	2.11	0
2	429	2.12	0
2	430	2.13	0
2	431	2.14	0
2	432	2.15	0
2	433	2.16	0
2	434	2.17	0
2	435	2.18	0
2	436	2.19	0
2	437	2.2	0
2	438	2.21	0
2	439	2.22	0
2	440	2.23	0
2	441	2.24	0
2	442	2.25	0
2	443	2.26	0
2	444	2.27	0
2	445	2.28	0
2	446	2.29	0
2	447	2.3	0
2	448	2.31	0
2	449	2.32	0
2	450	2.33	0
2	451	2.34	0
2	452	2.35	0
2	453	2.36	0
2	454	2.37	0
2	455	2.38	0
2	456	2.39	0
2	457	2.4	0
2	458	2.41	0
2	459	2.42	0
2	460	2.43	0
2	461	2.44	0
2	462	2.45	0
2	463	2.46	0
2	464	2.47	0
2	465	2.48	0
2	466	2.49	0
2	467	2.5	0
2	495	2.51	0
2	496	2.52	0
2	497	2.53	0
2	498	2.54	0
2	499	2.55	0
2	500	2.56	0
2	501	2.57	0
2	502	2.58	0
2	503	2.59	0
2	504	2.6	0
2	505	2.61	0
2	533	2.62	0
2	534	2.63	0
2	562	2.64	0
2	563	2.65	0
2	564	2.66	0
2	565	2.67	0
2	566	2.68	0
2	567	2.69	0
2	568	2.7	0
2	569	2.71	0
2	570	2.72	0
2	571	2.73	0
2	572	2.74	0
2	573	2.75	0
2	574	2.76	0
2	575	2.77	0
2	576	2.78	0
2	577	2.79	0
2	578	2.8	0
2	579	2.81	0
2	580	2.82	0
2	581	2.83	0
2	582	2.84	0
2	583	2.85	0
2	584	2.86	0
2	585	2.87	0
2	586	2.88	0
2	587	2.89	0
2	588	2.9	0
2	589	2.91	0
2	617	2.92	0
2	618	2.93	0
2	619	2.94	0
2	620	2.95	0
2	621	2.96	0
2	622	2.97	0
2	623	2.98	0
2	624	2.99	0
2	625	3	0
2	626	3.01	0
2	627	3.02	0
2	628	3.03	0
2	629	3.04	0
2	630	3.05	0
2	631	3.06	0
2	632	3.07	0
2	633	3.08	0
2	634	3.09	0
2	635	3.1	0
2	636	3.11	0
2	637	3.12	0
2	638	3.13	0
2	639	3.14	0
2	640	3.15	0
2	641	3.16	0
2	642	3.17	0
2	643	3.18	0
2	644	3.19	0
2	645	3.2	0
2	646	3.21	0
2	647	3.22	0
2	648	3.23	0
2	649	3.24	0
2	650	3.25	0
2	651	3.26	0
2	652	3.27	0
2	653	3.28	0
2	654	3.29	0
2	655	3.3	0
2	656	3.31	0
2	657	3.32	0
2	658	3.33	0
2	659	3.34	0
2	660	3.35	0
2	661	3.36	0
2	662	3.37	0
2	663	3.38	0
2	664	3.39	0
2	665	3.4	0
2	666	3.41	0
2	667	3.42	0
2	668	3.43	0
2	669	3.44	0
2	670	3.45	0
2	671	3.46	0
2	672	3.47	0
2	673	3.48	0
2	674	3.49	0
2	675	3.5	0
2	703	3.51	0
2	704	3.52	0
2	705	3.53	0
2	706	3.54	0
2	707	3.55	0
2	708	3.56	0
2	709	3.57	0
2	710	3.58	0
2	711	3.59	0
2	712	3.6	0
2	713	3.61	0
2	741	3.62	0
2	742	3.63	0
2	770	3.64	0
2	771	3.65	0
2	772	3.66	0
2	773	3.67	0
2	774	3.68	0
2	775	3.69	0
2	776	3.7	0
2	777	3.71	0
2	778	3.72	0
2	779	3.73	0
2	780	3.74	0
2	781	3.75	0
2	782	3.76	0
2	783	3.77	0
2	784	3.78	0
2	785	3.79	0
2	786	3.8	0
2	787	3.81	0
2	788	3.82	0
2	789	3.83	0
2	790	3.84	0
2	791	3.85	0
2	792	3.86	0
2	793	3.87	0
2	794	3.88	0
2	795	3.89	0
2	796	3.9	0
2	797	3.91	0
2	825	3.92	0
2	826	3.93	0
2	827	3.94	0
2	828	3.95	0
2	829	3.96	0
2	830	3.97	0
2	831	3.98	0
2	832	3.99	0
2	833	4	0
2	834	4.01	0
2	835	4.02	0
2	836	4.03	0
2	837	4.04	0
2	838	4.05	0
2	839	4.06	0
2	840	4.07	0
2	841	4.08	0
2	842	4.09	0
2	843	4.1	0
2	844	4.11	0
2	845	4.12	0
2	846	4.13	0
2	847	4.14	0
2	848	4.15	0
2	849	4.16	0
2	850	4.17	0
2	851	4.18	0
2	852	4.19	0
2	853	4.2	0
2	854	4.21	0
2	855	4.22	0
2	856	4.23	0
2	857	4.24	0
2	858	4.25	0
2	859	4.26	0
2	860	4.27	0
2	861	4.28	0
2	862	4.29	0
2	863	4.3	0
2	864	4.31	0
2	865	4.32	0
2	866	4.33	0
2	867	4.34	0
2	868	4.35	0
2	869	4.36	0
2	870	4.37	0
2	871	4.38	0
2	872	4.39	0
2	873	4.4	0
2	874	4.41	0
2	875	4.42	0
2	876	4.43	0
2	877	4.44	0
2	878	4.45	0
2	879	4.46	0
2	880	4.47	0
2	881	4.48	0
2	882	4.49	0
2	883	4.5	0
2	911	4.51	0
2	912	4.52	0
2	913	4.53	0
2	914	4.54	0
2	915	4.55	0
2	916	4.56	0
2	917	4.57	0
2	918	4.58	0
2	919	4.59	0
2	920	4.6	0
2	921	4.61	0
2	949	4.62	0
2	950	4.63	0
2	978	4.64	0
2	979	4.65	0
2	980	4.66	0
2	981	4.67	0
2	982	4.68	0
2	983	4.69	0
2	984	4.7	0
2	985	4.71	0
2	986	4.72	0
2	987	4.73	0
2	988	4.74	0
2	989	4.75	0
2	990	4.76	0
2	991	4.77	0
2	992	4.78	0
2	993	4.79	0
2	994	4.8	0
2	995	4.81	0
2	996	4.82	0
2	997	4.83	0
2	998	4.84	0
2	999	4.85	0
2	1000	4.86	0
2	1001	4.87	0
2	1002	4.88	0
2	1003	4.89	0
2	1004	4.9	0
2	1005	4.91	0
2	1033	4.92	0
2	1034	4.93	0
2	1035	4.94	0
2	1036	4.95	0
2	1037	4.96	0
2	1038	4.97	0
2	1039	4.98	0
2	1040	4.99	0
2	1041	5	0
2	1042	5.01	0
2	1043	5.02	0
2	1044	5.03	0
2	1045	5.04	0
2	1046	5.05	0
2	1047	5.06	0
2	1048	5.07	0
2	1049	5.08	0
2	1050	5.09	0
2	1051	5.1	0
2	1052	5.11	0
2	1053	5.12	0
2	1054	5.13	0
2	1055	5.14	0
2	1056	5.15	0
2	1057	5.16	0
2	1058	5.17	0
2	1059	5.18	0
2	1060	5.19	0
2	1061	5.2	0
2	1062	5.21	0
2	1063	5.22	0
2	1064	5.23	0
2	1065	5.24	0
2	1066	5.25	0
2	1067	5.26	0
2	1068	5.27	0
2	1069	5.28	0
2	1070	5.29	0
2	1071	5.3	0
2	1072	5.31	0
2	1073	5.32	0
2	1074	5.33	0
2	1075	5.34	0
2	1076	5.35	0
2	1077	5.36	0
2	1078	5.37	0
2	1079	5.38	0
2	1080	5.39	0
2	1081	5.4	0
2	1082	5.41	0
2	1083	5.42	0
2	1084	5.43	0
2	1085	5.44	0
2	1086	5.45	0
2	1087	5.46	0
2	1088	5.47	0
2	1089	5.48	0
2	1090	5.49	0
2	1091	5.5	0
2	1119	5.51	0
2	1120	5.52	0
2	1121	5.53	0
2	1122	5.54	0
2	1123	5.55	0
2	1124	5.56	0
2	1125	5.57	0
2	1126	5.58	0
2	1127	5.59	0
2	1128	5.6	0
2	1129	5.61	0
2	1157	5.62	0
2	1158	5.63	0
2	1186	5.64	0
2	1187	5.65	0
2	1188	5.66	0
2	1189	5.67	0
2	1190	5.68	0
2	1191	5.69	0
2	1192	5.7	0
2	1193	5.71	0
2	1194	5.72	0
2	1195	5.73	0
2	1196	5.74	0
2	1197	5.75	0
2	1198	5.76	0
2	1199	5.77	0
2	1200	5.78	0
2	1201	5.79	0
2	1202	5.8	0
2	1203	5.81	0
2	1204	5.82	0
2	1205	5.83	0
2	1206	5.84	0
2	1207	5.85	0
2	1208	5.86	0
2	1209	5.87	0
2	1210	5.88	0
2	1211	5.89	0
2	1212	5.9	0
2	1213	5.91	0
2	1241	5.92	0
2	1242	5.93	0
2	1243	5.94	0
2	1244	5.95	0
2	1245	5.96	0
2	1246	5.97	0
2	1247	5.98	0
2	1248	5.99	0
2	1249	6	0
2	1250	6.01	0
2	1251	6.02	0
2	1252	6.03	0
2	1253	6.04	0
2	1254	6.05	0
2	1255	6.06	0
2	1256	6.07	0
2	1257	6.08	0
2	1258	6.09	0
2	1259	6.1	0
2	1260	6.11	0
2	1261	6.12	0
2	1262	6.13	0
2	1263	6.14	0
2	1264	6.15	0
2	1265	6.16	0
2	1266	6.17	0
2	1267	6.18	0
2	1268	6.19	0
2	1269	6.2	0
2	1270	6.21	0
2	1271	6.22	0
2	1272	6.23	0
2	1273	6.24	0
2	1274	6.25	0
2	1275	6.26	0
2	1276	6.27	0
2	1277	6.28	0
2	1278	6.29	0
2	1279	6.3	0
2	1280	6.31	0
2	1281	6.32	0
2	1282	6.33	0
2	1283	6.34	0
2	1284	6.35	0
2	1285	6.36	0
2	1286	6.37	0
2	1287	6.38	0
2	1288	6.39	0
2	1289	6.4	0
2	1290	6.41	0
2	1291	6.42	0
2	1292	6.43	0
2	1293	6.44	0
2	1294	6.45	0
2	1295	6.46	0
2	1296	6.47	0
2	1297	6.48	0
2	1298	6.49	0
2	1299	6.5	0
2	1327	6.51	0
2	1328	6.52	0
2	1329	6.53	0
2	1330	6.54	0
2	1331	6.55	0
2	1332	6.56	0
2	1333	6.57	0
2	1334	6.58	0
2	1335	6.59	0
2	1336	6.6	0
2	1337	6.61	0
2	1365	6.62	0
2	1366	6.63	0
2	1394	6.64	0
2	1395	6.65	0
2	1396	6.66	0
2	1397	6.67	0
2	1398	6.68	0
2	1399	6.69	0
2	1400	6.7	0
2	1401	6.71	0
2	1402	6.72	0
2	1403	6.73	0
2	1404	6.74	0
2	1405	6.75	0
2	1406	6.76	0
2	1407	6.77	0
2	1408	6.78	0
2	1409	6.79	0
2	1410	6.8	0
2	1411	6.81	0
2	1412	6.82	0
2	1413	6.83	0
2	1414	6.84	0
2	1415	6.85	0
2	1416	6.86	0
2	1417	6.87	0
2	1418	6.88	0
2	1419	6.89	0
2	1420	6.9	0
2	1421	6.91	0
2	1449	6.92	0
2	1450	6.93	0
2	1451	6.94	0
2	1452	6.95	0
2	1453	6.96	0
2	1454	6.97	0
2	1455	6.98	0
2	1456	6.99	0
2	1457	7	0
2	1458	7.01	0
2	1459	7.02	0
2	1460	7.03	0
2	1461	7.04	0
2	1462	7.05	0
2	1463	7.06	0
2	1464	7.07	0
2	1465	7.08	0
2	1466	7.09	0
2	1467	7.1	0
2	1468	7.11	0
2	1469	7.12	0
2	1470	7.13	0
2	1471	7.14	0
2	1472	7.15	0
2	1473	7.16	0
2	1474	7.17	0
2	1475	7.18	0
2	1476	7.19	0
2	1477	7.2	0
2	1478	7.21	0
2	1479	7.22	0
2	1480	7.23	0
2	1481	7.24	0
2	1482	7.25	0
2	1483	7.26	0
2	1484	7.27	0
2	1485	7.28	0
2	1486	7.29	0
2	1487	7.3	0
2	1488	7.31	0
2	1489	7.32	0
2	1490	7.33	0
2	1491	7.34	0
2	1492	7.35	0
2	1493	7.36	0
2	1494	7.37	0
2	1495	7.38	0
2	1496	7.39	0
2	1497	7.4	0
2	1498	7.41	0
2	1499	7.42	0
2	1500	7.43	0
2	1501	7.44	0
2	1502	7.45	0
2	1503	7.46	0
2	1504	7.47	0
2	1505	7.48	0
2	1506	7.49	0
2	1507	7.5	0
2	1535	7.51	0
2	1536	7.52	0
2	1537	7.53	0
2	1538	7.54	0
2	1539	7.55	0
2	1540	7.56	0
2	1541	7.57	0
2	1542	7.58	0
2	1543	7.59	0
2	1544	7.6	0
2	1545	7.61	0
2	1573	7.62	0
2	1574	7.63	0
2	1602	7.64	0
2	1603	7.65	0
2	1604	7.66	0
2	1605	7.67	0
2	1606	7.68	0
2	1607	7.69	0
2	1608	7.7	0
2	1609	7.71	0
2	1610	7.72	0
2	1611	7.73	0
2	1612	7.74	0
2	1613	7.75	0
2	1614	7.76	0
2	1615	7.77	0
2	1616	7.78	0
2	1617	7.79	0
2	1618	7.8	0
2	1619	7.81	0
2	1620	7.82	0
2	1621	7.83	0
2	1622	7.84	0
2	1623	7.85	0
2	1624	7.86	0
2	1625	7.87	0
2	1626	7.88	0
2	1627	7.89	0
2	1628	7.9	0
2	1629	7.91	0
2	1657	7.92	0
2	1658	7.93	0
2	1659	7.94	0
2	1660	7.95	0
2	1661	7.96	0
2	1662	7.97	0
2	1663	7.98	0
2	1664	7.99	0
2	1665	8	0
2	1666	8.01	0
2	1667	8.02	0
2	1668	8.03	0
2	1669	8.04	0
2	1670	8.05	0
2	1671	8.06	0
2	1672	8.07	0
2	1673	8.08	0
2	1674	8.09	0
2	1675	8.1	0
2	1676	8.11	0
2	1677	8.12	0
2	1678	8.13	0
2	1679	8.14	0
2	1680	8.15	0
2	1681	8.16	0
2	1682	8.17	0
2	1683	8.18	0
2	1684	8.19	0
2	1685	8.2	0
2	1686	8.21	0
2	1687	8.22	0
2	1688	8.23	0
2	1689	8.24	0
2	1690	8.25	0
2	1691	8.26	0
2	1692	8.27	0
2	1693	8.28	0
2	1694	8.29	0
2	1695	8.3	0
2	1696	8.31	0
2	1697	8.32	0
2	1698	8.33	0
2	1699	8.34	0
2	1700	8.35	0
2	1701	8.36	0
2	1702	8.37	0
2	1703	8.38	0
2	1704	8.39	0
2	1705	8.4	0
2	1706	8.41	0
2	1707	8.42	0
2	1708	8.43	0
2	1709	8.44	0
2	1710	8.45	0
2	1711	8.46	0
2	1712	8.47	0
2	1713	8.48	0
2	1714	8.49	0
2	1715	8.5	0
2	1743	8.51	0
2	1744	8.52	0
2	1745	8.53	0
2	1746	8.54	0
2	1747	8.55	0
2	1748	8.56	0
2	1749	8.57	0
2	1750	8.58	0
2	1751	8.59	0
2	1752	8.6	0
2	1753	8.61	0
2	1781	8.62	0
2	1782	8.63	0
2	1810	8.64	0
2	1811	8.65	0
2	1812	8.66	0
2	1813	8.67	0
2	1814	8.68	0
2	1815	8.69	0
2	1816	8.7	0
2	1817	8.71	0
2	1818	8.72	0
2	1819	8.73	0
2	1820	8.74	0
2	1821	8.75	0
2	1822	8.76	0
2	1823	8.77	0
2	1824	8.78	0
2	1825	8.79	0
2	1826	8.8	0
2	1827	8.81	0
2	1828	8.82	0
2	1829	8.83	0
2	1830	8.84	0
2	1831	8.85	0
2	1832	8.86	0
2	1833	8.87	0
2	1834	8.88	0
2	1835	8.89	0
2	1836	8.9	0
2	1837	8.91	0
2	1865	8.92	0
2	1866	8.93	0
2	1867	8.94	0
2	1868	8.95	0
2	1869	8.96	0
2	1870	8.97	0
2	1871	8.98	0
2	1872	8.99	0
2	1873	9	0
2	1874	9.01	0
2	1875	9.02	0
2	1876	9.03	0
2	1877	9.04	0
2	1878	9.05	0
2	1879	9.06	0
2	1880	9.07	0
2	1881	9.08	0
2	1882	9.09	0
2	1883	9.1	0
2	1884	9.11	0
2	1885	9.12	0
2	1886	9.13	0
2	1887	9.14	0
2	1888	9.15	0
2	1889	9.16	0
2	1890	9.17	0
2	1891	9.18	0
2	1892	9.19	0
2	1893	9.2	0
2	1894	9.21	0
2	1895	9.22	0
2	1896	9.23	0
2	1897	9.24	0
2	1898	9.25	0
2	1899	9.26	0
2	1900	9.27	0
2	1901	9.28	0
2	1902	9.29	0
2	1903	9.3	0
2	1904	9.31	0
2	1905	9.32	0
2	1906	9.33	0
2	1907	9.34	0
2	1908	9.35	0
2	1909	9.36	0
2	1910	9.37	0
2	1911	9.38	0
2	1912	9.39	0
2	1913	9.4	0
2	1914	9.41	0
2	1915	9.42	0
2	1916	9.43	0
2	1917	9.44	0
2	1918	9.45	0
2	1919	9.46	0
2	1920	9.47	0
2	1921	9.48	0
2	1922	9.49	0
2	1923	9.5	0
2	1951	9.51	0
2	1952	9.52	0
2	1953	9.53	0
2	1954	9.54	0
2	1955	9.55	0
2	1956	9.56	0
2	1957	9.57	0
2	1958	9.58	0
2	1959	9.59	0
2	1960	9.6	0
2	1961	9.61	0
2	1989	9.62	0
2	1990	9.63	0
2	2018	9.64	0
2	2019	9.65	0
2	2020	9.66	0
2	2021	9.67	0
2	2022	9.68	0
2	2023	9.69	0
2	2024	9.7	0
2	2025	9.71	0
2	2026	9.72	0
2	2027	9.73	0
2	2028	9.74	0
2	2029	9.75	0
2	2030	9.76	0
2	2031	9.77	0
2	2032	9.78	0
2	2033	9.79	0
2	2034	9.8	0
2	2035	9.81	0
2	2036	9.82	0
2	2037	9.83	0
2	2038	9.84	0
2	2039	9.85	0
2	2040	9.86	0
2	2041	9.87	0
2	2042	9.88	0
2	2043	9.89	0
2	2044	9.9	0
2	2045	9.91	0
2	2073	9.92	0
2	2074	9.93	0
2	2075	9.94	0
2	2076	9.95	0
2	2077	9.96	0
2	2078	9.97	0
2	2079	9.98	0
2	2080	9.99	0
2	2081	10	0
2	2082	10.01	0
2	2083	10.02	0
2	2084	10.03	0
2	2085	10.04	0
2	2086	10.05	0
2	2087	10.06	0
2	2088	10.07	0
2	2089	10.08	0
2	2090	10.09	0
2	2091	10.1	0
2	2092	10.11	0
2	2093	10.12	0
2	2094	10.13	0
2	2095	10.14	0
2	2096	10.15	0
2	2097	10.16	0
2	2098	10.17	0
2	2099	10.18	0
2	2100	10.19	0
2	2101	10.2	0
2	2102	10.21	0
2	2103	10.22	0
2	2104	10.23	0
2	2105	10.24	0
2	2106	10.25	0
2	2107	10.26	0
2	2108	10.27	0
2	2109	10.28	0
2	2110	10.29	0
2	2111	10.3	0
2	2112	10.31	0
2	2113	10.32	0
2	2114	10.33	0
2	2115	10.34	0
2	2116	10.35	0
2	2117	10.36	0
2	2118	10.37	0
2	2119	10.38	0
2	2120	10.39	0
2	2121	10.4	0
2	2122	10.41	0
2	2123	10.42	0
2	2124	10.43	0
2	2125	10.44	0
2	2126	10.45	0
2	2127	10.46	0
2	2128	10.47	0
2	2129	10.48	0
2	2130	10.49	0
2	2131	10.5	0
2	2159	10.51	0
2	2160	10.52	0
2	2161	10.53	0
2	2162	10.54	0
2	2163	10.55	0
2	2164	10.56	0
2	2165	10.57	0
2	2166	10.58	0
2	2167	10.59	0
2	2168	10.6	0
2	2169	10.61	0
2	2197	10.62	0
2	2198	10.63	0
2	2226	10.64	0
2	2227	10.65	0
2	2228	10.66	0
2	2229	10.67	0
2	2230	10.68	0
2	2231	10.69	0
2	2232	10.7	0
2	2233	10.71	0
2	2234	10.72	0
2	2235	10.73	0
2	2236	10.74	0
2	2237	10.75	0
2	2238	10.76	0
2	2239	10.77	0
2	2240	10.78	0
2	2241	10.79	0
2	2242	10.8	0
2	2243	10.81	0
2	2244	10.82	0
2	2245	10.83	0
2	2246	10.84	0
2	2247	10.85	0
2	2248	10.86	0
2	2249	10.87	0
2	2250	10.88	0
2	2251	10.89	0
2	2252	10.9	0
2	2253	10.91	0
2	2281	10.92	0
2	2282	10.93	0
2	2283	10.94	0
2	2284	10.95	0
2	2285	10.96	0
2	2286	10.97	0
2	2287	10.98	0
2	2288	10.99	0
2	2289	11	0
2	2290	11.01	0
2	2291	11.02	0
2	2292	11.03	0
2	2293	11.04	0
2	2294	11.05	0
2	2295	11.06	0
2	2296	11.07	0
2	2297	11.08	0
2	2298	11.09	0
2	2299	11.1	0
2	2300	11.11	0
2	2301	11.12	0
2	2302	11.13	0
2	2303	11.14	0
2	2304	11.15	0
2	2305	11.16	0
2	2306	11.17	0
2	2307	11.18	0
2	2308	11.19	0
2	2309	11.2	0
2	2310	11.21	0
2	2311	11.22	0
2	2312	11.23	0
2	2313	11.24	0
2	2314	11.25	0
2	2315	11.26	0
2	2316	11.27	0
2	2317	11.28	0
2	2318	11.29	0
2	2319	11.3	0
2	2320	11.31	0
2	2321	11.32	0
2	2322	11.33	0
2	2323	11.34	0
2	2324	11.35	0
2	2325	11.36	0
2	2326	11.37	0
2	2327	11.38	0
2	2328	11.39	0
2	2329	11.4	0
2	2330	11.41	0
2	2331	11.42	0
2	2332	11.43	0
2	2333	11.44	0
2	2334	11.45	0
2	2335	11.46	0
2	2336	11.47	0
2	2337	11.48	0
2	2338	11.49	0
2	2339	11.5	0
2	2367	11.51	0
2	2368	11.52	0
2	2369	11.53	0
2	2370	11.54	0
2	2371	11.55	0
2	2372	11.56	0
2	2373	11.57	0
2	2374	11.58	0
2	2375	11.59	0
2	2376	11.6	0
2	2377	11.61	0
2	2405	11.62	0
2	2406	11.63	0
2	2434	11.64	0
2	2435	11.65	0
2	2436	11.66	0
2	2437	11.67	0
2	2438	11.68	0
2	2439	11.69	0
2	2440	11.7	0
2	2441	11.71	0
2	2442	11.72	0
2	2443	11.73	0
2	2444	11.74	0
2	2445	11.75	0
2	2446	11.76	0
2	2447	11.77	0
2	2448	11.78	0
2	2449	11.79	0
2	2450	11.8	0
2	2451	11.81	0
2	2452	11.82	0
2	2453	11.83	0
2	2454	11.84	0
2	2455	11.85	0
2	2456	11.86	0
2	2457	11.87	0
2	2458	11.88	0
2	2459	11.89	0
2	2460	11.9	0
2	2461	11.91	0
2	2489	11.92	0
2	2490	11.93	0
2	2491	11.94	0
2	2492	11.95	0
2	2493	11.96	0
2	2494	11.97	0
2	2495	11.98	0
2	2496	11.99	0
2	2497	12	0
2	2498	12.01	0
2	2499	12.02	0
2	2500	12.03	0
2	2501	12.04	0
2	2502	12.05	0
2	2503	12.06	0
2	2504	12.07	0
2	2505	12.08	0
2	2506	12.09	0
2	2507	12.1	0
2	2508	12.11	0
2	2509	12.12	0
2	2510	12.13	0
2	2511	12.14	0
2	2512	12.15	0
2	2513	12.16	0
2	2514	12.17	0
2	2515	12.18	0
2	2516	12.19	0
2	2517	12.2	0
2	2518	12.21	0
2	2519	12.22	0
2	2520	12.23	0
2	2521	12.24	0
2	2522	12.25	0
2	2523	12.26	0
2	2524	12.27	0
2	2525	12.28	0
2	2526	12.29	0
2	2527	12.3	0
2	2528	12.31	0
2	2529	12.32	0
2	2530	12.33	0
2	2531	12.34	0
2	2532	12.35	0
2	2533	12.36	0
2	2534	12.37	0
2	2535	12.38	0
2	2536	12.39	0
2	2537	12.4	0
2	2538	12.41	0
2	2539	12.42	0
2	2540	12.43	0
2	2541	12.44	0
2	2542	12.45	0
2	2543	12.46	0
2	2544	12.47	0
2	2545	12.48	0
2	2546	12.49	0
2	2547	12.5	0
2	2575	12.51	0
2	2576	12.52	0
2	2577	12.53	0
2	2578	12.54	0
2	2579	12.55	0
2	2580	12.56	0
2	2581	12.57	0
2	2582	12.58	0
2	2583	12.59	0
2	2584	12.6	0
2	2585	12.61	0
2	2613	12.62	0
2	2614	12.63	0
2	2642	12.64	0
2	2643	12.65	0
2	2644	12.66	0
2	2645	12.67	0
2	2646	12.68	0
2	2647	12.69	0
2	2648	12.7	0
2	2649	12.71	0
2	2650	12.72	0
2	2651	12.73	0
2	2652	12.74	0
2	2653	12.75	0
2	2654	12.76	0
2	2655	12.77	0
2	2656	12.78	0
2	2657	12.79	0
2	2658	12.8	0
2	2659	12.81	0
2	2660	12.82	0
2	2661	12.83	0
2	2662	12.84	0
2	2663	12.85	0
2	2664	12.86	0
2	2665	12.87	0
2	2666	12.88	0
2	2667	12.89	0
2	2668	12.9	0
2	2669	12.91	0
2	2697	12.92	0
2	2698	12.93	0
2	2699	12.94	0
2	2700	12.95	0
2	2701	12.96	0
2	2702	12.97	0
2	2703	12.98	0
2	2704	12.99	0
2	2705	13	0
2	2706	13.01	0
2	2707	13.02	0
2	2708	13.03	0
2	2709	13.04	0
2	2710	13.05	0
2	2711	13.06	0
2	2712	13.07	0
2	2713	13.08	0
2	2714	13.09	0
2	2715	13.1	0
2	2716	13.11	0
2	2717	13.12	0
2	2718	13.13	0
2	2719	13.14	0
2	2720	13.15	0
2	2721	13.16	0
2	2722	13.17	0
2	2723	13.18	0
2	2724	13.19	0
2	2725	13.2	0
2	2726	13.21	0
2	2727	13.22	0
2	2728	13.23	0
2	2729	13.24	0
2	2730	13.25	0
2	2731	13.26	0
2	2732	13.27	0
2	2733	13.28	0
2	2734	13.29	0
2	2735	13.3	0
2	2736	13.31	0
2	2737	13.32	0
2	2738	13.33	0
2	2739	13.34	0
2	2740	13.35	0
2	2741	13.36	0
2	2742	13.37	0
2	2743	13.38	0
2	2744	13.39	0
2	2745	13.4	0
2	2746	13.41	0
2	2747	13.42	0
2	2748	13.43	0
2	2749	13.44	0
2	2750	13.45	0
2	2751	13.46	0
2	2752	13.47	0
2	2753	13.48	0
2	2754	13.49	0
2	2755	13.5	0
2	2783	13.51	0
2	2784	13.52	0
2	2785	13.53	0
2	2786	13.54	0
2	2787	13.55	0
2	2788	13.56	0
2	2789	13.57	0
2	2790	13.58	0
2	2791	13.59	0
2	2792	13.6	0
2	2793	13.61	0
2	2821	13.62	0
2	2822	13.63	0
2	2850	13.64	0
2	2851	13.65	0
2	2852	13.66	0
2	2853	13.67	0
2	2854	13.68	0
2	2855	13.69	0
2	2856	13.7	0
2	2857	13.71	0
2	2858	13.72	0
2	2859	13.73	0
2	2860	13.74	0
2	2861	13.75	0
2	2862	13.76	0
2	2863	13.77	0
2	2864	13.78	0
2	2865	13.79	0
2	2866	13.8	0
2	2867	13.81	0
2	2868	13.82	0
2	2869	13.83	0
2	2870	13.84	0
2	2871	13.85	0
2	2872	13.86	0
2	2873	13.87	0
2	2874	13.88	0
2	2875	13.89	0
2	2876	13.9	0
2	2877	13.91	0
2	2905	13.92	0
2	2906	13.93	0
2	2907	13.94	0
2	2908	13.95	0
2	2909	13.96	0
2	2910	13.97	0
2	2911	13.98	0
2	2912	13.99	0
2	2913	14	0
2	2914	14.01	0
2	2915	14.02	0
2	2916	14.03	0
2	2917	14.04	0
2	2918	14.05	0
2	2919	14.06	0
2	2920	14.07	0
2	2921	14.08	0
2	2922	14.09	0
2	2923	14.1	0
2	2924	14.11	0
2	2925	14.12	0
2	2926	14.13	0
2	2927	14.14	0
2	2928	14.15	0
2	2929	14.16	0
2	2930	14.17	0
2	2931	14.18	0
2	2932	14.19	0
2	2933	14.2	0
2	2934	14.21	0
2	2935	14.22	0
2	2936	14.23	0
2	2937	14.24	0
2	2938	14.25	0
2	2939	14.26	0
2	2940	14.27	0
2	2941	14.28	0
2	2942	14.29	0
2	2943	14.3	0
2	2944	14.31	0
2	2945	14.32	0
2	2946	14.33	0
2	2947	14.34	0
2	2948	14.35	0
2	2949	14.36	0
2	2950	14.37	0
2	2951	14.38	0
2	2952	14.39	0
2	2953	14.4	0
2	2954	14.41	0
2	2955	14.42	0
2	2956	14.43	0
2	2957	14.44	0
2	2958	14.45	0
2	2959	14.46	0
2	2960	14.47	0
2	2961	14.48	0
2	2962	14.49	0
2	2963	14.5	0
2	2991	14.51	0
2	2992	14.52	0
2	2993	14.53	0
2	2994	14.54	0
2	2995	14.55	0
2	2996	14.56	0
2	2997	14.57	0
2	2998	14.58	0
2	2999	14.59	0
2	3000	14.6	0
2	3001	14.61	0
2	3029	14.62	0
2	3030	14.63	0
2	3058	14.64	0
2	3059	14.65	0
2	3060	14.66	0
2	3061	14.67	0
2	3062	14.68	0
2	3063	14.69	0
2	3064	14.7	0
2	3065	14.71	0
2	3066	14.72	0
2	3067	14.73	0
2	3068	14.74	0
2	3069	14.75	0
2	3070	14.76	0
2	3071	14.77	0
2	3072	14.78	0
2	3073	14.79	0
2	3074	14.8	0
2	3075	14.81	0
2	3076	14.82	0
2	3077	14.83	0
2	3078	14.84	0
2	3079	14.85	0
2	3080	14.86	0
2	3081	14.87	0
2	3082	14.88	0
2	3083	14.89	0
2	3084	14.9	0
2	3085	14.91	0
2	3113	14.92	0
2	3114	14.93	0
2	3115	14.94	0
2	3116	14.95	0
2	3117	14.96	0
2	3118	14.97	0
2	3119	14.98	0
2	3120	14.99	0
2	3121	15	0
2	3122	15.01	0
2	3123	15.02	0
2	3124	15.03	0
2	3125	15.04	0
2	3126	15.05	0
2	3127	15.06	0
2	3128	15.07	0
2	3129	15.08	0
2	3130	15.09	0
2	3131	15.1	0
2	3132	15.11	0
2	3133	15.12	0
2	3134	15.13	0
2	3135	15.14	0
2	3136	15.15	0
2	3137	15.16	0
2	3138	15.17	0
2	3139	15.18	0
2	3140	15.19	0
2	3141	15.2	0
2	3142	15.21	0
2	3143	15.22	0
2	3144	15.23	0
2	3145	15.24	0
2	3146	15.25	0
2	3147	15.26	0
2	3148	15.27	0
2	3149	15.28	0
2	3150	15.29	0
2	3151	15.3	0
2	3152	15.31	0
2	3153	15.32	0
2	3154	15.33	0
2	3155	15.34	0
2	3156	15.35	0
2	3157	15.36	0
2	3158	15.37	0
2	3159	15.38	0
2	3160	15.39	0
2	3161	15.4	0
2	3162	15.41	0
2	3163	15.42	0
2	3164	15.43	0
2	3165	15.44	0
2	3166	15.45	0
2	3167	15.46	0
2	3168	15.47	0
2	3169	15.48	0
2	3170	15.49	0
2	3171	15.5	0
2	3199	15.51	0
2	3200	15.52	0
2	3201	15.53	0
2	3202	15.54	0
2	3203	15.55	0
2	3204	15.56	0
2	3205	15.57	0
2	3206	15.58	0
2	3207	15.59	0
2	3208	15.6	0
2	3209	15.61	0
2	3237	15.62	0
2	3238	15.63	0
2	3266	15.64	0
2	3267	15.65	0
2	3268	15.66	0
2	3269	15.67	0
2	3270	15.68	0
2	3271	15.69	0
2	3272	15.7	0
2	3273	15.71	0
2	3274	15.72	0
2	3275	15.73	0
2	3276	15.74	0
2	3277	15.75	0
2	3278	15.76	0
2	3279	15.77	0
2	3280	15.78	0
2	3281	15.79	0
2	3282	15.8	0
2	3283	15.81	0
2	3284	15.82	0
2	3285	15.83	0
2	3286	15.84	0
2	3287	15.85	0
2	3288	15.86	0
2	3289	15.87	0
2	3290	15.88	0
2	3291	15.89	0
2	3292	15.9	0
2	3293	15.91	0
2	3321	15.92	0
2	3322	15.93	0
2	3323	15.94	0
2	3324	15.95	0
2	3325	15.96	0
2	3326	15.97	0
2	3327	15.98	0
2	3328	15.99	0
2	3329	16	0
2	3330	16.01	0
2	3331	16.02	0
2	3332	16.03	0
2	3333	16.04	0
2	3334	16.05	0
2	3335	16.06	0
2	3336	16.07	0
2	3337	16.08	0
2	3338	16.09	0
2	3339	16.1	0
2	3340	16.11	0
2	3341	16.12	0
2	3342	16.13	0
2	3343	16.14	0
2	3344	16.15	0
2	3345	16.16	0
2	3346	16.17	0
2	3347	16.18	0
2	3348	16.19	0
2	3349	16.2	0
2	3350	16.21	0
2	3351	16.22	0
2	3352	16.23	0
2	3353	16.24	0
2	3354	16.25	0
2	3355	16.26	0
2	3356	16.27	0
2	3357	16.28	0
2	3358	16.29	0
2	3359	16.3	0
2	3360	16.31	0
2	3361	16.32	0
2	3362	16.33	0
2	3363	16.34	0
2	3364	16.35	0
2	3365	16.36	0
2	3366	16.37	0
2	3367	16.38	0
2	3368	16.39	0
2	3369	16.4	0
2	3370	16.41	0
2	3371	16.42	0
2	3372	16.43	0
2	3373	16.44	0
2	3374	16.45	0
2	3375	16.46	0
2	3376	16.47	0
2	3377	16.48	0
2	3378	16.49	0
2	3379	16.5	0
2	3407	16.51	0
2	3408	16.52	0
2	3409	16.53	0
2	3410	16.54	0
2	3411	16.55	0
2	3412	16.56	0
2	3413	16.57	0
2	3414	16.58	0
2	3415	16.59	0
2	3416	16.6	0
2	3417	16.61	0
2	3445	16.62	0
2	3446	16.63	0
2	3474	16.64	0
2	3475	16.65	0
2	3476	16.66	0
2	3477	16.67	0
2	3478	16.68	0
2	3479	16.69	0
2	3480	16.7	0
2	3481	16.71	0
2	3482	16.72	0
2	3483	16.73	0
2	3484	16.74	0
2	3485	16.75	0
2	3486	16.76	0
2	3487	16.77	0
2	3488	16.78	0
2	3489	16.79	0
2	3490	16.8	0
2	3491	16.81	0
2	3492	16.82	0
2	3493	16.83	0
2	3494	16.84	0
2	3495	16.85	0
2	3496	16.86	0
2	3497	16.87	0
2	3498	16.88	0
2	3499	16.89	0
2	3500	16.9	0
2	3501	16.91	0
2	3529	16.92	0
2	3530	16.93	0
2	3531	16.94	0
2	3532	16.95	0
2	3533	16.96	0
2	3534	16.97	0
2	3535	16.98	0
2	3536	16.99	0
2	3537	17	0
2	3538	17.01	0
2	3539	17.02	0
2	3540	17.03	0
2	3541	17.04	0
2	3542	17.05	0
2	3543	17.06	0
2	3544	17.07	0
2	3545	17.08	0
2	3546	17.09	0
2	3547	17.1	0
2	3548	17.11	0
2	3549	17.12	0
2	3550	17.13	0
2	3551	17.14	0
2	3552	17.15	0
2	3553	17.16	0
2	3554	17.17	0
2	3555	17.18	0
2	3556	17.19	0
2	3557	17.2	0
2	3558	17.21	0
2	3559	17.22	0
2	3560	17.23	0
2	3561	17.24	0
2	3562	17.25	0
2	3563	17.26	0
2	3564	17.27	0
2	3565	17.28	0
2	3566	17.29	0
2	3567	17.3	0
2	3568	17.31	0
2	3569	17.32	0
2	3570	17.33	0
2	3571	17.34	0
2	3572	17.35	0
2	3573	17.36	0
2	3574	17.37	0
2	3575	17.38	0
2	3576	17.39	0
2	3577	17.4	0
2	3578	17.41	0
2	3579	17.42	0
2	3580	17.43	0
2	3581	17.44	0
2	3582	17.45	0
2	3583	17.46	0
2	3584	17.47	0
2	3585	17.48	0
2	3586	17.49	0
2	3587	17.5	0
2	3615	17.51	0
2	3616	17.52	0
2	3617	17.53	0
2	3618	17.54	0
2	3619	17.55	0
2	3620	17.56	0
2	3621	17.57	0
2	3622	17.58	0
2	3623	17.59	0
2	3624	17.6	0
2	3625	17.61	0
2	3653	17.62	0
2	3654	17.63	0
2	3682	17.64	0
2	3683	17.65	0
2	3684	17.66	0
2	3685	17.67	0
2	3686	17.68	0
2	3687	17.69	0
2	3688	17.7	0
2	3689	17.71	0
2	3690	17.72	0
2	3691	17.73	0
2	3692	17.74	0
2	3693	17.75	0
2	3694	17.76	0
2	3695	17.77	0
2	3696	17.78	0
2	3697	17.79	0
2	3698	17.8	0
2	3699	17.81	0
2	3700	17.82	0
2	3701	17.83	0
2	3702	17.84	0
2	3703	17.85	0
2	3704	17.86	0
2	3705	17.87	0
2	3706	17.88	0
2	3707	17.89	0
2	3708	17.9	0
2	3709	17.91	0
2	3737	17.92	0
2	3738	17.93	0
2	3739	17.94	0
2	3740	17.95	0
2	3741	17.96	0
2	3742	17.97	0
2	3743	17.98	0
2	3744	17.99	0
2	3745	18	0
2	3746	18.01	0
2	3747	18.02	0
2	3748	18.03	0
2	3749	18.04	0
2	3750	18.05	0
2	3751	18.06	0
2	3752	18.07	0
2	3753	18.08	0
2	3754	18.09	0
2	3755	18.1	0
2	3756	18.11	0
2	3757	18.12	0
2	3758	18.13	0
2	3759	18.14	0
2	3760	18.15	0
2	3761	18.16	0
2	3762	18.17	0
2	3763	18.18	0
2	3764	18.19	0
2	3765	18.2	0
2	3766	18.21	0
2	3767	18.22	0
2	3768	18.23	0
2	3769	18.24	0
2	3770	18.25	0
2	3771	18.26	0
2	3772	18.27	0
2	3773	18.28	0
2	3774	18.29	0
2	3775	18.3	0
2	3776	18.31	0
2	3777	18.32	0
2	3778	18.33	0
2	3779	18.34	0
2	3780	18.35	0
2	3781	18.36	0
2	3782	18.37	0
2	3783	18.38	0
2	3784	18.39	0
2	3785	18.4	0
2	3786	18.41	0
2	3787	18.42	0
2	3788	18.43	0
2	3789	18.44	0
2	3790	18.45	0
2	3791	18.46	0
2	3792	18.47	0
2	3793	18.48	0
2	3794	18.49	0
2	3795	18.5	0
2	3823	18.51	0
2	3824	18.52	0
2	3825	18.53	0
2	3826	18.54	0
2	3827	18.55	0
2	3828	18.56	0
2	3829	18.57	0
2	3830	18.58	0
2	3831	18.59	0
2	3832	18.6	0
2	3833	18.61	0
2	3861	18.62	0
2	3862	18.63	0
2	3890	18.64	0
2	3891	18.65	0
2	3892	18.66	0
2	3893	18.67	0
2	3894	18.68	0
2	3895	18.69	0
2	3896	18.7	0
2	3897	18.71	0
2	3898	18.72	0
2	3899	18.73	0
2	3900	18.74	0
2	3901	18.75	0
2	3902	18.76	0
2	3903	18.77	0
2	3904	18.78	0
2	3905	18.79	0
2	3906	18.8	0
2	3907	18.81	0
2	3908	18.82	0
2	3909	18.83	0
2	3910	18.84	0
2	3911	18.85	0
2	3912	18.86	0
2	3913	18.87	0
2	3914	18.88	0
2	3915	18.89	0
2	3916	18.9	0
2	3917	18.91	0
2	3945	18.92	0
2	3946	18.93	0
2	3947	18.94	0
2	3948	18.95	0
2	3949	18.96	0
2	3950	18.97	0
2	3951	18.98	0
2	3952	18.99	0
2	3953	19	0
2	3954	19.01	0
2	3955	19.02	0
2	3956	19.03	0
2	3957	19.04	0
2	3958	19.05	0
2	3959	19.06	0
2	3960	19.07	0
2	3961	19.08	0
2	3962	19.09	0
2	3963	19.1	0
2	3964	19.11	0
2	3965	19.12	0
2	3966	19.13	0
2	3967	19.14	0
2	3968	19.15	0
2	3969	19.16	0
2	3970	19.17	0
2	3971	19.18	0
2	3972	19.19	0
2	3973	19.2	0
2	3974	19.21	0
2	3975	19.22	0
2	3976	19.23	0
2	3977	19.24	0
2	3978	19.25	0
2	3979	19.26	0
2	3980	19.27	0
2	3981	19.28	0
2	3982	19.29	0
2	3983	19.3	0
2	3984	19.31	0
2	3985	19.32	0
2	3986	19.33	0
2	3987	19.34	0
2	3988	19.35	0
2	3989	19.36	0
2	3990	19.37	0
2	3991	19.38	0
2	3992	19.39	0
2	3993	19.4	0
2	3994	19.41	0
2	3995	19.42	0
2	3996	19.43	0
2	3997	19.44	0
2	3998	19.45	0
2	3999	19.46	0
2	4000	19.47	0
2	4001	19.48	0
2	4002	19.49	0
2	4003	19.5	0
2	4031	19.51	0
2	4032	19.52	0
2	4033	19.53	0
2	4034	19.54	0
2	4035	19.55	0
2	4036	19.56	0
2	4037	19.57	0
2	4038	19.58	0
2	4039	19.59	0
2	4040	19.6	0
2	4041	19.61	0
2	4069	19.62	0
2	4070	19.63	0
2	4098	19.64	0
2	4099	19.65	0
2	4100	19.66	0
2	4101	19.67	0
2	4102	19.68	0
2	4103	19.69	0
2	4104	19.7	0
2	4105	19.71	0
2	4106	19.72	0
2	4107	19.73	0
2	4108	19.74	0
2	4109	19.75	0
2	4110	19.76	0
2	4111	19.77	0
2	4112	19.78	0
2	4113	19.79	0
2	4114	19.8	0
2	4115	19.81	0
2	4116	19.82	0
2	4117	19.83	0
2	4118	19.84	0
2	4119	19.85	0
2	4120	19.86	0
2	4121	19.87	0
2	4122	19.88	0
2	4123	19.89	0
2	4124	19.9	0
2	4125	19.91	0
2	4153	19.92	0
2	4154	19.93	0
2	4155	19.94	0
2	4156	19.95	0
2	4157	19.96	0
2	4158	19.97	0
2	4159	19.98	0
2	4160	19.99	0
2	4161	20	0
2	4162	20.01	0
2	4163	20.02	0
2	4164	20.03	0
2	4165	20.04	0
2	4166	20.05	0
2	4167	20.06	0
2	4168	20.07	0
2	4169	20.08	0
2	4170	20.09	0
2	4171	20.1	0
2	4172	20.11	0
2	4173	20.12	0
2	4174	20.13	0
2	4175	20.14	0
2	4176	20.15	0
2	4177	20.16	0
2	4178	20.17	0
2	4179	20.18	0
2	4180	20.19	0
2	4181	20.2	0
2	4182	20.21	0
2	4183	20.22	0
2	4184	20.23	0
2	4185	20.24	0
2	4186	20.25	0
2	4187	20.26	0
2	4188	20.27	0
2	4189	20.28	0
2	4190	20.29	0
2	4191	20.3	0
2	4192	20.31	0
2	4193	20.32	0
2	4194	20.33	0
2	4195	20.34	0
2	4196	20.35	0
2	4197	20.36	0
2	4198	20.37	0
2	4199	20.38	0
2	4200	20.39	0
2	4201	20.4	0
2	4202	20.41	0
2	4203	20.42	0
2	4204	20.43	0
2	4205	20.44	0
2	4206	20.45	0
2	4207	20.46	0
2	4208	20.47	0
2	4209	20.48	0
2	4210	20.49	0
2	4211	20.5	0
2	4239	20.51	0
2	4240	20.52	0
2	4241	20.53	0
2	4242	20.54	0
2	4243	20.55	0
2	4244	20.56	0
2	4245	20.57	0
2	4246	20.58	0
2	4247	20.59	0
2	4248	20.6	0
2	4249	20.61	0
2	4277	20.62	0
2	4278	20.63	0
2	4306	20.64	0
2	4307	20.65	0
2	4308	20.66	0
2	4309	20.67	0
2	4310	20.68	0
2	4311	20.69	0
2	4312	20.7	0
2	4313	20.71	0
2	4314	20.72	0
2	4315	20.73	0
2	4316	20.74	0
2	4317	20.75	0
2	4318	20.76	0
2	4319	20.77	0
2	4320	20.78	0
2	4321	20.79	0
2	4322	20.8	0
2	4323	20.81	0
2	4324	20.82	0
2	4325	20.83	0
2	4326	20.84	0
2	4327	20.85	0
2	4328	20.86	0
2	4329	20.87	0
2	4330	20.88	0
2	4331	20.89	0
2	4332	20.9	0
2	4333	20.91	0
2	4361	20.92	0
2	4362	20.93	0
2	4363	20.94	0
2	4364	20.95	0
2	4365	20.96	0
2	4366	20.97	0
2	4367	20.98	0
2	4368	20.99	0
2	4369	21	0
2	4370	21.01	0
2	4371	21.02	0
2	4372	21.03	0
2	4373	21.04	0
2	4374	21.05	0
2	4375	21.06	0
2	4376	21.07	0
2	4377	21.08	0
2	4378	21.09	0
2	4379	21.1	0
2	4380	21.11	0
2	4381	21.12	0
2	4382	21.13	0
2	4383	21.14	0
2	4384	21.15	0
2	4385	21.16	0
2	4386	21.17	0
2	4387	21.18	0
2	4388	21.19	0
2	4389	21.2	0
2	4390	21.21	0
2	4391	21.22	0
2	4392	21.23	0
2	4393	21.24	0
2	4394	21.25	0
2	4395	21.26	0
2	4396	21.27	0
2	4397	21.28	0
2	4398	21.29	0
2	4399	21.3	0
2	4400	21.31	0
2	4401	21.32	0
2	4402	21.33	0
2	4403	21.34	0
2	4404	21.35	0
2	4405	21.36	0
2	4406	21.37	0
2	4407	21.38	0
2	4408	21.39	0
2	4409	21.4	0
2	4410	21.41	0
2	4411	21.42	0
2	4412	21.43	0
2	4413	21.44	0
2	4414	21.45	0
2	4415	21.46	0
2	4416	21.47	0
2	4417	21.48	0
2	4418	21.49	0
2	4419	21.5	0
2	4447	21.51	0
2	4448	21.52	0
2	4449	21.53	0
2	4450	21.54	0
2	4451	21.55	0
2	4452	21.56	0
2	4453	21.57	0
2	4454	21.58	0
2	4455	21.59	0
2	4456	21.6	0
2	4457	21.61	0
2	4485	21.62	0
2	4486	21.63	0
2	4514	21.64	0
2	4515	21.65	0
2	4516	21.66	0
2	4517	21.67	0
2	4518	21.68	0
2	4519	21.69	0
2	4520	21.7	0
2	4521	21.71	0
2	4522	21.72	0
2	4523	21.73	0
2	4524	21.74	0
2	4525	21.75	0
2	4526	21.76	0
2	4527	21.77	0
2	4528	21.78	0
2	4529	21.79	0
2	4530	21.8	0
2	4531	21.81	0
2	4532	21.82	0
2	4533	21.83	0
2	4534	21.84	0
2	4535	21.85	0
2	4536	21.86	0
2	4537	21.87	0
2	4538	21.88	0
2	4539	21.89	0
2	4540	21.9	0
2	4541	21.91	0
2	4569	21.92	0
2	4570	21.93	0
2	4571	21.94	0
2	4572	21.95	0
2	4573	21.96	0
2	4574	21.97	0
2	4575	21.98	0
2	4576	21.99	0
2	4577	22	0
2	4578	22.01	0
2	4579	22.02	0
2	4580	22.03	0
2	4581	22.04	0
2	4582	22.05	0
2	4583	22.06	0
2	4584	22.07	0
2	4585	22.08	0
2	4586	22.09	0
2	4587	22.1	0
2	4588	22.11	0
2	4589	22.12	0
2	4590	22.13	0
2	4591	22.14	0
2	4592	22.15	0
2	4593	22.16	0
2	4594	22.17	0
2	4595	22.18	0
2	4596	22.19	0
2	4597	22.2	0
2	4598	22.21	0
2	4599	22.22	0
2	4600	22.23	0
2	4601	22.24	0
2	4602	22.25	0
2	4603	22.26	0
2	4604	22.27	0
2	4605	22.28	0
2	4606	22.29	0
2	4607	22.3	0
2	4608	22.31	0
2	4609	22.32	0
2	4610	22.33	0
2	4611	22.34	0
2	4612	22.35	0
2	4613	22.36	0
2	4614	22.37	0
2	4615	22.38	0
2	4616	22.39	0
2	4617	22.4	0
2	4618	22.41	0
2	4619	22.42	0
2	4620	22.43	0
2	4621	22.44	0
2	4622	22.45	0
2	4623	22.46	0
2	4624	22.47	0
2	4625	22.48	0
2	4626	22.49	0
2	4627	22.5	0
2	4655	22.51	0
2	4656	22.52	0
2	4657	22.53	0
2	4658	22.54	0
2	4659	22.55	0
2	4660	22.56	0
2	4661	22.57	0
2	4662	22.58	0
2	4663	22.59	0
2	4664	22.6	0
2	4665	22.61	0
2	4693	22.62	0
2	4694	22.63	0
2	4722	22.64	0
2	4723	22.65	0
2	4724	22.66	0
2	4725	22.67	0
2	4726	22.68	0
2	4727	22.69	0
2	4728	22.7	0
2	4729	22.71	0
2	4730	22.72	0
2	4731	22.73	0
2	4732	22.74	0
2	4733	22.75	0
2	4734	22.76	0
2	4735	22.77	0
2	4736	22.78	0
2	4737	22.79	0
2	4738	22.8	0
2	4739	22.81	0
2	4740	22.82	0
2	4741	22.83	0
2	4742	22.84	0
2	4743	22.85	0
2	4744	22.86	0
2	4745	22.87	0
2	4746	22.88	0
2	4747	22.89	0
2	4748	22.9	0
2	4749	22.91	0
2	4777	22.92	0
2	4778	22.93	0
2	4779	22.94	0
2	4780	22.95	0
2	4781	22.96	0
2	4782	22.97	0
2	4783	22.98	0
2	4784	22.99	0
2	4785	23	0
2	4786	23.01	0
2	4787	23.02	0
2	4788	23.03	0
2	4789	23.04	0
2	4790	23.05	0
2	4791	23.06	0
2	4792	23.07	0
2	4793	23.08	0
2	4794	23.09	0
2	4795	23.1	0
2	4796	23.11	0
2	4797	23.12	0
2	4798	23.13	0
2	4799	23.14	0
2	4800	23.15	0
2	4801	23.16	0
2	4802	23.17	0
2	4803	23.18	0
2	4804	23.19	0
2	4805	23.2	0
2	4806	23.21	0
2	4807	23.22	0
2	4808	23.23	0
2	4809	23.24	0
2	4810	23.25	0
2	4811	23.26	0
2	4812	23.27	0
2	4813	23.28	0
2	4814	23.29	0
2	4815	23.3	0
2	4816	23.31	0
2	4817	23.32	0
2	4818	23.33	0
2	4819	23.34	0
2	4820	23.35	0
2	4821	23.36	0
2	4822	23.37	0
2	4823	23.38	0
2	4824	23.39	0
2	4825	23.4	0
2	4826	23.41	0
2	4827	23.42	0
2	4828	23.43	0
2	4829	23.44	0
2	4830	23.45	0
2	4831	23.46	0
2	4832	23.47	0
2	4833	23.48	0
2	4834	23.49	0
2	4835	23.5	0
2	4863	23.51	0
2	4864	23.52	0
2	4865	23.53	0
2	4866	23.54	0
2	4867	23.55	0
2	4868	23.56	0
2	4869	23.57	0
2	4870	23.58	0
2	4871	23.59	0
2	4872	23.6	0
2	4873	23.61	0
2	4901	23.62	0
2	4902	23.63	0
2	4930	23.64	0
2	4931	23.65	0
2	4932	23.66	0
2	4933	23.67	0
2	4934	23.68	0
2	4935	23.69	0
2	4936	23.7	0
2	4937	23.71	0
2	4938	23.72	0
2	4939	23.73	0
2	4940	23.74	0
2	4941	23.75	0
2	4942	23.76	0
2	4943	23.77	0
2	4944	23.78	0
2	4945	23.79	0
2	4946	23.8	0
2	4947	23.81	0
2	4948	23.82	0
2	4949	23.83	0
2	4950	23.84	0
2	4951	23.85	0
2	4952	23.86	0
2	4953	23.87	0
2	4954	23.88	0
2	4955	23.89	0
2	4956	23.9	0
2	4957	23.91	0
2	4985	23.92	0
2	4986	23.93	0
2	4987	23.94	0
2	4988	23.95	0
2	4989	23.96	0
2	4990	23.97	0
2	4991	23.98	0
2	4992	23.99	0
2	4993	24	0
2	4994	24.01	0
2	4995	24.02	0
2	4996	24.03	0
2	4997	24.04	0
2	4998	24.05	0
2	4999	24.06	0
2	5000	24.07	0
2	5001	24.08	0
2	5002	24.09	0
2	5003	24.1	0
2	5004	24.11	0
2	5005	24.12	0
2	5006	24.13	0
2	5007	24.14	0
2	5008	24.15	0
2	5009	24.16	0
2	5010	24.17	0
2	5011	24.18	0
2	5012	24.19	0
2	5013	24.2	0
2	5014	24.21	0
2	5015	24.22	0
2	5016	24.23	0
2	5017	24.24	0
2	5018	24.25	0
2	5019	24.26	0
2	5020	24.27	0
2	5021	24.28	0
2	5022	24.29	0
2	5023	24.3	0
2	5024	24.31	0
2	5025	24.32	0
2	5026	24.33	0
2	5027	24.34	0
2	5028	24.35	0
2	5029	24.36	0
2	5030	24.37	0
2	5031	24.38	0
2	5032	24.39	0
2	5033	24.4	0
2	5034	24.41	0
2	5035	24.42	0
2	5036	24.43	0
2	5037	24.44	0
2	5038	24.45	0
2	5039	24.46	0
2	5040	24.47	0
2	5041	24.48	0
2	5042	24.49	0
2	5043	24.5	0
2	5071	24.51	0
2	5072	24.52	0
2	5073	24.53	0
2	5074	24.54	0
2	5075	24.55	0
2	5076	24.56	0
2	5077	24.57	0
2	5078	24.58	0
2	5079	24.59	0
2	5080	24.6	0
2	5081	24.61	0
2	5109	24.62	0
2	5110	24.63	0
2	5138	24.64	0
2	5139	24.65	0
2	5140	24.66	0
2	5141	24.67	0
2	5142	24.68	0
2	5143	24.69	0
2	5144	24.7	0
2	5145	24.71	0
2	5146	24.72	0
2	5147	24.73	0
2	5148	24.74	0
2	5149	24.75	0
2	5150	24.76	0
2	5151	24.77	0
2	5152	24.78	0
2	5153	24.79	0
2	5154	24.8	0
2	5155	24.81	0
2	5156	24.82	0
2	5157	24.83	0
2	5158	24.84	0
2	5159	24.85	0
2	5160	24.86	0
2	5161	24.87	0
2	5162	24.88	0
2	5163	24.89	0
2	5164	24.9	0
2	5165	24.91	0
2	5193	24.92	0
2	5194	24.93	0
2	5195	24.94	0
2	5196	24.95	0
2	5197	24.96	0
2	5198	24.97	0
2	5199	24.98	0
2	5200	24.99	0
2	5201	25	0
2	5202	25.01	0
2	5203	25.02	0
2	5204	25.03	0
2	5205	25.04	0
2	5206	25.05	0
2	5207	25.06	0
2	5208	25.07	0
2	5209	25.08	0
2	5210	25.09	0
2	5211	25.1	0
2	5212	25.11	0
2	5213	25.12	0
2	5214	25.13	0
2	5215	25.14	0
2	5216	25.15	0
2	5217	25.16	0
2	5218	25.17	0
2	5219	25.18	0
2	5220	25.19	0
2	5221	25.2	0
2	5222	25.21	0
2	5223	25.22	0
2	5224	25.23	0
2	5225	25.24	0
2	5226	25.25	0
2	5227	25.26	0
2	5228	25.27	0
2	5229	25.28	0
2	5230	25.29	0
2	5231	25.3	0
2	5232	25.31	0
2	5233	25.32	0
2	5234	25.33	0
2	5235	25.34	0
2	5236	25.35	0
2	5237	25.36	0
2	5238	25.37	0
2	5239	25.38	0
2	5240	25.39	0
2	5241	25.4	0
2	5242	25.41	0
2	5243	25.42	0
2	5244	25.43	0
2	5245	25.44	0
2	5246	25.45	0
2	5247	25.46	0
2	5248	25.47	0
2	5249	25.48	0
2	5250	25.49	0
2	5251	25.5	0
2	5279	25.51	0
2	5280	25.52	0
2	5281	25.53	0
2	5282	25.54	0
2	5283	25.55	0
2	5284	25.56	0
2	5285	25.57	0
2	5286	25.58	0
2	5287	25.59	0
2	5288	25.6	0
2	5289	25.61	0
2	5317	25.62	0
2	5318	25.63	0
2	5346	25.64	0
2	5347	25.65	0
2	5348	25.66	0
2	5349	25.67	0
2	5350	25.68	0
2	5351	25.69	0
2	5352	25.7	0
2	5353	25.71	0
2	5354	25.72	0
2	5355	25.73	0
2	5356	25.74	0
2	5357	25.75	0
2	5358	25.76	0
2	5359	25.77	0
2	5360	25.78	0
2	5361	25.79	0
2	5362	25.8	0
2	5363	25.81	0
2	5364	25.82	0
2	5365	25.83	0
2	5366	25.84	0
2	5367	25.85	0
2	5368	25.86	0
2	5369	25.87	0
2	5370	25.88	0
2	5371	25.89	0
2	5372	25.9	0
2	5373	25.91	0
2	5401	25.92	0
2	5402	25.93	0
2	5403	25.94	0
2	5404	25.95	0
2	5405	25.96	0
2	5406	25.97	0
2	5407	25.98	0
2	5408	25.99	0
2	5409	26	0
2	5410	26.01	0
2	5411	26.02	0
2	5412	26.03	0
2	5413	26.04	0
2	5414	26.05	0
2	5415	26.06	0
2	5416	26.07	0
2	5417	26.08	0
2	5418	26.09	0
2	5419	26.1	0
2	5420	26.11	0
2	5421	26.12	0
2	5422	26.13	0
2	5423	26.14	0
2	5424	26.15	0
2	5425	26.16	0
2	5426	26.17	0
2	5427	26.18	0
2	5428	26.19	0
2	5429	26.2	0
2	5430	26.21	0
2	5431	26.22	0
2	5432	26.23	0
2	5433	26.24	0
2	5434	26.25	0
2	5435	26.26	0
2	5436	26.27	0
2	5437	26.28	0
2	5438	26.29	0
2	5439	26.3	0
2	5440	26.31	0
2	5441	26.32	0
2	5442	26.33	0
2	5443	26.34	0
2	5444	26.35	0
2	5445	26.36	0
2	5446	26.37	0
2	5447	26.38	0
2	5448	26.39	0
2	5449	26.4	0
2	5450	26.41	0
2	5451	26.42	0
2	5452	26.43	0
2	5453	26.44	0
2	5454	26.45	0
2	5455	26.46	0
2	5456	26.47	0
2	5457	26.48	0
2	5458	26.49	0
2	5459	26.5	0
2	5487	26.51	0
2	5488	26.52	0
2	5489	26.53	0
2	5490	26.54	0
2	5491	26.55	0
2	5492	26.56	0
2	5493	26.57	0
2	5494	26.58	0
2	5495	26.59	0
2	5496	26.6	0
2	5497	26.61	0
2	5525	26.62	0
2	5526	26.63	0
2	5554	26.64	0
2	5555	26.65	0
2	5556	26.66	0
2	5557	26.67	0
2	5558	26.68	0
2	5559	26.69	0
2	5560	26.7	0
2	5561	26.71	0
2	5562	26.72	0
2	5563	26.73	0
2	5564	26.74	0
2	5565	26.75	0
2	5566	26.76	0
2	5567	26.77	0
2	5568	26.78	0
2	5569	26.79	0
2	5570	26.8	0
2	5571	26.81	0
2	5572	26.82	0
2	5573	26.83	0
2	5574	26.84	0
2	5575	26.85	0
2	5576	26.86	0
2	5577	26.87	0
2	5578	26.88	0
2	5579	26.89	0
2	5580	26.9	0
2	5581	26.91	0
2	5609	26.92	0
2	5610	26.93	0
2	5611	26.94	0
2	5612	26.95	0
2	5613	26.96	0
2	5614	26.97	0
2	5615	26.98	0
2	5616	26.99	0
2	5617	27	0
2	5618	27.01	0
2	5619	27.02	0
2	5620	27.03	0
2	5621	27.04	0
2	5622	27.05	0
2	5623	27.06	0
2	5624	27.07	0
2	5625	27.08	0
2	5626	27.09	0
2	5627	27.1	0
2	5628	27.11	0
2	5629	27.12	0
2	5630	27.13	0
2	5631	27.14	0
2	5632	27.15	0
2	5633	27.16	0
2	5634	27.17	0
2	5635	27.18	0
2	5636	27.19	0
2	5637	27.2	0
2	5638	27.21	0
2	5639	27.22	0
2	5640	27.23	0
2	5641	27.24	0
2	5642	27.25	0
2	5643	27.26	0
2	5644	27.27	0
2	5645	27.28	0
2	5646	27.29	0
2	5647	27.3	0
2	5648	27.31	0
2	5649	27.32	0
2	5650	27.33	0
2	5651	27.34	0
2	5652	27.35	0
2	5653	27.36	0
2	5654	27.37	0
2	5655	27.38	0
2	5656	27.39	0
2	5657	27.4	0
2	5658	27.41	0
2	5659	27.42	0
2	5660	27.43	0
2	5661	27.44	0
2	5662	27.45	0
2	5663	27.46	0
2	5664	27.47	0
2	5665	27.48	0
2	5666	27.49	0
2	5667	27.5	0
2	5695	27.51	0
2	5696	27.52	0
2	5697	27.53	0
2	5698	27.54	0
2	5699	27.55	0
2	5700	27.56	0
2	5701	27.57	0
2	5702	27.58	0
2	5703	27.59	0
2	5704	27.6	0
2	5705	27.61	0
2	5733	27.62	0
2	5734	27.63	0
2	5762	27.64	0
2	5763	27.65	0
2	5764	27.66	0
2	5765	27.67	0
2	5766	27.68	0
2	5767	27.69	0
2	5768	27.7	0
2	5769	27.71	0
2	5770	27.72	0
2	5771	27.73	0
2	5772	27.74	0
2	5773	27.75	0
2	5774	27.76	0
2	5775	27.77	0
2	5776	27.78	0
2	5777	27.79	0
2	5778	27.8	0
2	5779	27.81	0
2	5780	27.82	0
2	5781	27.83	0
2	5782	27.84	0
2	5783	27.85	0
2	5784	27.86	0
2	5785	27.87	0
2	5786	27.88	0
2	5787	27.89	0
2	5788	27.9	0
2	5789	27.91	0
2	5817	27.92	0
2	5818	27.93	0
2	5819	27.94	0
2	5820	27.95	0
2	5821	27.96	0
2	5822	27.97	0
2	5823	27.98	0
2	5824	27.99	0
2	5825	28	0
2	5826	28.01	0
2	5827	28.02	0
2	5828	28.03	0
2	5829	28.04	0
2	5830	28.05	0
2	5831	28.06	0
2	5832	28.07	0
[...]
11	11103	53.51	423.10977760958
11	11104	53.52	423.06680365492
11	11105	53.53	423.02382937316
11	11106	53.54	422.98085476477
11	11107	53.55	422.93787983018
11	11108	53.56	422.89490456984
11	11109	53.57	422.85192898421
11	11110	53.58	422.80895307372
11	11111	53.59	422.76597683884
11	11112	53.6	422.72300028
11	11113	53.61	422.68002339765
11	11141	53.62	422.63704619225
11	11142	53.63	422.59406866425
11	11170	53.64	422.55109081409
11	11171	53.65	422.50811264222
11	11172	53.66	422.4651341491
11	11173	53.67	422.42215533517
11	11174	53.68	422.37917620089
11	11175	53.69	422.33619674671
11	11176	53.7	422.29321697308
11	11177	53.71	422.25023688045
11	11178	53.72	422.20725646927
11	11179	53.73	422.16427574
11	11180	53.74	422.12129469309
11	11181	53.75	422.07831332898
11	11182	53.76	422.03533164815
11	11183	53.77	421.99234965103
11	11184	53.78	421.94936733808
11	11185	53.79	421.90638470976
11	11186	53.8	421.86340176652
11	11187	53.81	421.82041850881
11	11188	53.82	421.7774349371
11	11189	53.83	421.73445105183
11	11190	53.84	421.69146685346
11	11191	53.85	421.64848234245
11	11192	53.86	421.60549751924
11	11193	53.87	421.56251238431
11	11194	53.88	421.5195269381
11	11195	53.89	421.47654118108
11	11196	53.9	421.43355511369
11	11197	53.91	421.3905687364
11	11225	53.92	421.34758204966
11	11226	53.93	421.30459505393
11	11227	53.94	421.26160774968
11	11228	53.95	421.21862013735
11	11229	53.96	421.17563221741
11	11230	53.97	421.13264399031
11	11231	53.98	421.08965545652
11	11232	53.99	421.04666661649
11	11233	54	421.00367747069
11	11234	54.01	420.96068801957
11	11235	54.02	420.91769826359
11	11236	54.03	420.87470820322
11	11237	54.04	420.83171783892
11	11238	54.05	420.78872717114
11	11239	54.06	420.74573620034
11	11240	54.07	420.702744927
11	11241	54.08	420.65975335157
11	11242	54.09	420.6167614745
11	11243	54.1	420.57376929628
11	11244	54.11	420.53077681735
11	11245	54.12	420.48778403818
11	11246	54.13	420.44479095923
11	11247	54.14	420.40179758097
11	11248	54.15	420.35880390386
11	11249	54.16	420.31580992836
11	11250	54.17	420.27281565494
11	11251	54.18	420.22982108406
11	11252	54.19	420.18682621619
11	11253	54.2	420.14383105179
11	11254	54.21	420.10083559132
11	11255	54.22	420.05783983525
11	11256	54.23	420.01484378405
11	11257	54.24	419.97184743818
11	11258	54.25	419.92885079811
11	11259	54.26	419.8858538643
11	11260	54.27	419.84285663723
11	11261	54.28	419.79985911735
11	11262	54.29	419.75686130513
11	11263	54.3	419.71386320104
11	11264	54.31	419.67086480556
11	11265	54.32	419.62786611913
11	11266	54.33	419.58486714224
11	11267	54.34	419.54186787536
11	11268	54.35	419.49886831894
11	11269	54.36	419.45586847346
11	11270	54.37	419.41286833938
11	11271	54.38	419.36986791719
11	11272	54.39	419.32686720733
11	11273	54.4	419.28386621029
11	11274	54.41	419.24086492654
11	11275	54.42	419.19786335654
11	11276	54.43	419.15486150076
11	11277	54.44	419.11185935968
11	11278	54.45	419.06885693376
11	11279	54.46	419.02585422347
11	11280	54.47	418.9828512293
11	11281	54.48	418.9398479517
11	11282	54.49	418.89684439114
11	11283	54.5	418.85384054811
11	11311	54.51	418.81083642308
11	11312	54.52	418.7678320165
11	11313	54.53	418.72482732886
11	11314	54.54	418.68182236064
11	11315	54.55	418.63881711229
11	11316	54.56	418.5958115843
11	11317	54.57	418.55280577713
11	11318	54.58	418.50979969127
11	11319	54.59	418.46679332718
11	11320	54.6	418.42378668534
11	11321	54.61	418.38077976622
11	11349	54.62	418.3377725703
11	11350	54.63	418.29476509805
11	11378	54.64	418.25175734995
11	11379	54.65	418.20874932647
11	11380	54.66	418.16574102808
11	11381	54.67	418.12273245526
11	11382	54.68	418.07972360849
11	11383	54.69	418.03671448824
11	11384	54.7	417.99370509499
11	11385	54.71	417.95069542921
11	11386	54.72	417.90768549138
11	11387	54.73	417.86467528198
11	11388	54.74	417.82166480148
11	11389	54.75	417.77865405036
11	11390	54.76	417.73564302909
11	11391	54.77	417.69263173817
11	11392	54.78	417.64962017805
11	11393	54.79	417.60660834922
11	11394	54.8	417.56359625216
11	11395	54.81	417.52058388734
11	11396	54.82	417.47757125525
11	11397	54.83	417.43455835635
11	11398	54.84	417.39154519114
11	11399	54.85	417.34853176009
11	11400	54.86	417.30551806367
11	11401	54.87	417.26250410237
11	11402	54.88	417.21948987667
11	11403	54.89	417.17647538705
11	11404	54.9	417.13346063397
11	11405	54.91	417.09044561794
11	11433	54.92	417.04743033942
11	11434	54.93	417.0044147989
11	11435	54.94	416.96139899685
11	11436	54.95	416.91838293376
11	11437	54.96	416.87536661011
11	11438	54.97	416.83235002637
11	11439	54.98	416.78933318304
11	11440	54.99	416.74631608059
11	11441	55	416.7032987195
11	11442	55.01	416.66028110026
11	11443	55.02	416.61726322334
11	11444	55.03	416.57424508923
11	11445	55.04	416.53122669841
11	11446	55.05	416.48820805137
11	11447	55.06	416.44518914858
11	11448	55.07	416.40216999053
11	11449	55.08	416.3591505777
11	11450	55.09	416.31613091058
11	11451	55.1	416.27311098965
11	11452	55.11	416.23009081538
11	11453	55.12	416.18707038828
11	11454	55.13	416.14404970881
11	11455	55.14	416.10102877746
11	11456	55.15	416.05800759473
11	11457	55.16	416.01498616108
11	11458	55.17	415.97196447701
11	11459	55.18	415.928942543
11	11460	55.19	415.88592035954
11	11461	55.2	415.84289792711
11	11462	55.21	415.79987524619
11	11463	55.22	415.75685231727
11	11464	55.23	415.71382914084
11	11465	55.24	415.67080571739
11	11466	55.25	415.62778204739
11	11467	55.26	415.58475813133
11	11468	55.27	415.54173396971
11	11469	55.28	415.498709563
11	11470	55.29	415.45568491169
11	11471	55.3	415.41266001627
11	11472	55.31	415.36963487723
11	11473	55.32	415.32660949505
11	11474	55.33	415.28358387022
11	11475	55.34	415.24055800323
11	11476	55.35	415.19753189456
11	11477	55.36	415.1545055447
11	11478	55.37	415.11147895414
11	11479	55.38	415.06845212337
11	11480	55.39	415.02542505288
11	11481	55.4	414.98239774315
11	11482	55.41	414.93937019467
11	11483	55.42	414.89634240792
11	11484	55.43	414.85331438341
11	11485	55.44	414.81028612162
11	11486	55.45	414.76725762303
11	11487	55.46	414.72422888813
11	11488	55.47	414.68119991742
11	11489	55.48	414.63817071138
11	11490	55.49	414.5951412705
11	11491	55.5	414.55211159528
11	11519	55.51	414.5090816862
11	11520	55.52	414.46605154374
11	11521	55.53	414.42302116841
11	11522	55.54	414.37999056069
11	11523	55.55	414.33695972108
11	11524	55.56	414.29392865005
11	11525	55.57	414.25089734811
11	11526	55.58	414.20786581574
11	11527	55.59	414.16483405343
11	11528	55.6	414.12180206168
11	11529	55.61	414.07876984097
11	11557	55.62	414.0357373918
11	11558	55.63	413.99270471466
11	11586	55.64	413.94967181003
11	11587	55.65	413.90663867842
11	11588	55.66	413.86360532031
11	11589	55.67	413.82057173619
11	11590	55.68	413.77753792656
11	11591	55.69	413.73450389191
11	11592	55.7	413.69146963273
11	11593	55.71	413.60866580843
11	11594	55.72	413.48380111525
11	11595	55.73	413.35893577489
11	11596	55.74	413.23406978877
11	11597	55.75	413.10920315832
11	11598	55.76	412.98433588498
11	11599	55.77	412.85946797017
11	11600	55.78	412.73459941533
11	11601	55.79	412.60973022189
11	11602	55.8	412.48486039127
11	11603	55.81	412.35998992491
11	11604	55.82	412.23511882425
11	11605	55.83	412.11024709071
11	11606	55.84	411.98537472573
11	11607	55.85	411.86050173074
11	11608	55.86	411.73562810717
11	11609	55.87	411.61075385646
11	11610	55.88	411.48587898005
11	11611	55.89	411.36100347935
11	11612	55.9	411.23612735582
11	11613	55.91	411.11125061089
11	11641	55.92	410.98637324598
11	11642	55.93	410.86149526255
11	11643	55.94	410.73661666201
11	11644	55.95	410.61173744581
11	11645	55.96	410.48685761539
11	11646	55.97	410.36197717218
11	11647	55.98	410.23709611763
11	11648	55.99	410.11221445315
11	11649	56	409.98733218021
11	11650	56.01	409.86244930022
11	11651	56.02	409.73756581464
11	11652	56.03	409.61268172489
11	11653	56.04	409.48779703242
11	11654	56.05	409.36291173867
11	11655	56.06	409.23802584508
11	11656	56.07	409.11313935309
11	11657	56.08	408.98825226413
11	11658	56.09	408.86336457965
11	11659	56.1	408.73847630108
11	11660	56.11	408.61358742988
11	11661	56.12	408.48869796747
11	11662	56.13	408.3638079153
11	11663	56.14	408.23891727482
11	11664	56.15	408.11402604746
11	11665	56.16	407.98913423467
11	11666	56.17	407.86424183788
11	11667	56.18	407.73934885855
11	11668	56.19	407.61445529811
11	11669	56.2	407.48956115801
11	11670	56.21	407.36466643969
11	11671	56.22	407.23977114459
11	11672	56.23	407.11487527417
11	11673	56.24	406.98997882985
11	11674	56.25	406.86508181309
11	11675	56.26	406.74018422534
11	11676	56.27	406.61528606803
11	11677	56.28	406.49038734261
11	11678	56.29	406.36548805053
11	11679	56.3	406.24058819323
11	11680	56.31	406.11568777215
11	11681	56.32	405.99078678876
11	11682	56.33	405.86588524448
11	11683	56.34	405.74098314077
11	11684	56.35	405.61608047907
11	11685	56.36	405.49117726083
11	11686	56.37	405.3662734875
11	11687	56.38	405.24136916052
11	11688	56.39	405.11646428135
11	11689	56.4	404.99155885142
11	11690	56.41	404.8666528722
11	11691	56.42	404.74174634512
11	11692	56.43	404.61683927163
11	11693	56.44	404.49193165318
11	11694	56.45	404.36702349123
11	11695	56.46	404.24211478722
11	11696	56.47	404.11720554259
11	11697	56.48	403.99229575881
11	11698	56.49	403.86738543731
11	11699	56.5	403.74247457955
11	11727	56.51	403.61756318697
11	11728	56.52	403.49265126104
11	11729	56.53	403.36773880319
11	11730	56.54	403.24282581488
11	11731	56.55	403.11791229756
11	11732	56.56	402.99299825268
11	11733	56.57	402.86808368169
11	11734	56.58	402.74316858604
11	11735	56.59	402.61825296718
11	11736	56.6	402.49333682656
11	11737	56.61	402.36842016565
11	11765	56.62	402.24350298587
11	11766	56.63	402.1185852887
11	11794	56.64	401.99366707558
11	11795	56.65	401.86874834796
11	11796	56.66	401.7438291073
11	11797	56.67	401.61890935505
11	11798	56.68	401.49398909266
11	11799	56.69	401.36906832158
11	11800	56.7	401.24414704326
11	11801	56.71	401.11922525917
11	11802	56.72	400.99430297075
11	11803	56.73	400.86938017946
11	11804	56.74	400.74445688674
11	11805	56.75	400.61953309406
11	11806	56.76	400.49460880287
11	11807	56.77	400.36968401462
11	11808	56.78	400.24475873076
11	11809	56.79	400.11983295275
11	11810	56.8	399.99490668205
11	11811	56.81	399.8699799201
11	11812	56.82	399.74505266837
11	11813	56.83	399.6201249283
11	11814	56.84	399.49519670135
11	11815	56.85	399.37026798898
11	11816	56.86	399.24533879264
11	11817	56.87	399.12040911379
11	11818	56.88	398.99547895388
11	11819	56.89	398.87054831437
11	11820	56.9	398.74561719671
11	11821	56.91	398.62068560236
11	11849	56.92	398.49575353277
11	11850	56.93	398.3708209894
11	11851	56.94	398.24588797371
11	11852	56.95	398.12095448714
11	11853	56.96	397.99602053117
11	11854	56.97	397.87108610723
11	11855	56.98	397.7461512168
11	11856	56.99	397.62121586132
11	11857	57	397.49628004225
11	11858	57.01	397.37134376105
11	11859	57.02	397.24640701918
11	11860	57.03	397.12146981808
11	11861	57.04	396.99653215923
11	11862	57.05	396.87159404407
11	11863	57.06	396.74665547405
11	11864	57.07	396.62171645065
11	11865	57.08	396.49677697531
11	11866	57.09	396.3718370495
11	11867	57.1	396.24689667466
11	11868	57.11	396.12195585226
11	11869	57.12	395.99701458375
11	11870	57.13	395.87207287059
11	11871	57.14	395.74713071424
11	11872	57.15	395.62218811615
11	11873	57.16	395.49724507779
11	11874	57.17	395.37230160061
11	11875	57.18	395.24735768606
11	11876	57.19	395.12241333561
11	11877	57.2	394.99746855071
11	11878	57.21	394.87252333282
11	11879	57.22	394.74757768339
11	11880	57.23	394.6226316039
11	11881	57.24	394.49768509578
11	11882	57.25	394.37273816051
11	11883	57.26	394.24779079953
11	11884	57.27	394.12284301431
11	11885	57.28	393.99789480631
11	11886	57.29	393.87294617697
11	11887	57.3	393.74799712777
11	11888	57.31	393.62304766015
11	11889	57.32	393.49809777558
11	11890	57.33	393.37314747551
11	11891	57.34	393.2481967614
11	11892	57.35	393.12324563472
11	11893	57.36	392.99829409691
11	11894	57.37	392.87334214943
11	11895	57.38	392.74838979375
11	11896	57.39	392.62343703132
11	11897	57.4	392.4984838636
11	11898	57.41	392.37353029204
11	11899	57.42	392.24857631812
11	11900	57.43	392.12362194327
11	11901	57.44	391.99866716897
11	11902	57.45	391.87371199666
11	11903	57.46	391.74875642782
11	11904	57.47	391.62380046389
11	11905	57.48	391.49884410633
11	11906	57.49	391.3738873566
11	11907	57.5	391.24893021616
11	11935	57.51	391.12397268647
11	11936	57.52	390.99901476899
11	11937	57.53	390.87405646517
11	11938	57.54	390.74909777647
11	11939	57.55	390.62413870434
11	11940	57.56	390.49917925026
11	11941	57.57	390.37421941567
11	11942	57.58	390.24925920203
11	11943	57.59	390.1242986108
11	11944	57.6	389.99933764344
11	11945	57.61	389.8743763014
11	11973	57.62	389.74941458614
11	11974	57.63	389.62445249913
11	12002	57.64	389.49949004182
11	12003	57.65	389.37452721566
11	12004	57.66	389.24956402211
11	12005	57.67	389.12460046263
11	12006	57.68	388.99963653868
11	12007	57.69	388.87467225172
11	12008	57.7	388.7497076032
11	12009	57.71	388.62474259458
11	12010	57.72	388.49977722731
11	12011	57.73	388.37481150286
11	12012	57.74	388.24984542268
11	12013	57.75	388.12487898823
11	12014	57.76	387.99991220096
11	12015	57.77	387.87494506233
11	12016	57.78	387.7499775738
11	12017	57.79	387.62500973683
11	12018	57.8	387.50004155287
11	12019	57.81	387.37507302338
11	12020	57.82	387.25010414981
11	12021	57.83	387.12513493362
11	12022	57.84	387.00016537627
11	12023	57.85	386.87519547922
11	12024	57.86	386.75022524391
11	12025	57.87	386.62525467181
11	12026	57.88	386.50028376438
11	12027	57.89	386.37531252306
11	12028	57.9	386.25034094931
11	12029	57.91	386.1253690446
11	12057	57.92	386.00039681037
11	12058	57.93	385.87542424808
11	12059	57.94	385.75045135919
11	12060	57.95	385.62547814515
11	12061	57.96	385.50050460742
11	12062	57.97	385.31202322444
11	12063	57.98	385.11736517966
11	12064	57.99	384.92270663751
11	12065	58	384.72804760024
11	12066	58.01	384.53338807012
11	12067	58.02	384.33872804942
11	12068	58.03	384.1440675404
11	12069	58.04	383.94940654533
11	12070	58.05	383.75474506647
11	12071	58.06	383.5600831061
11	12072	58.07	383.36542066646
11	12073	58.08	383.17075774984
11	12074	58.09	382.97609435849
11	12075	58.1	382.78143049467
11	12076	58.11	382.58676616066
11	12077	58.12	382.39210135871
11	12078	58.13	382.19743609109
11	12079	58.14	382.00277036006
11	12080	58.15	381.80810416789
11	12081	58.16	381.61343751683
11	12082	58.17	381.41877040916
11	12083	58.18	381.22410284713
11	12084	58.19	381.02943483301
11	12085	58.2	380.83476636906
11	12086	58.21	380.64009745753
11	12087	58.22	380.4454281007
11	12088	58.23	380.25075830083
11	12089	58.24	380.05608806017
11	12090	58.25	379.86141738099
11	12091	58.26	379.66674626554
11	12092	58.27	379.47207471609
11	12093	58.28	379.2774027349
11	12094	58.29	379.08273032423
11	12095	58.3	378.88805748634
11	12096	58.31	378.69338422348
11	12097	58.32	378.49871053792
11	12098	58.33	378.30403643192
11	12099	58.34	378.10936190774
11	12100	58.35	377.91468696763
11	12101	58.36	377.72001161385
11	12102	58.37	377.52533584866
11	12103	58.38	377.33065967432
11	12104	58.39	377.13598309309
11	12105	58.4	376.94130610722
11	12106	58.41	376.74662871897
11	12107	58.42	376.55195093059
11	12108	58.43	376.35727274435
11	12109	58.44	376.1625941625
11	12110	58.45	375.9679151873
11	12111	58.46	375.77323582099
11	12112	58.47	375.57855606585
11	12113	58.48	375.38387592411
11	12114	58.49	375.18919539804
11	12115	58.5	374.99451448989
11	12143	58.51	374.79983320192
11	12144	58.52	374.60515153638
11	12145	58.53	374.41046949551
11	12146	58.54	374.21578708159
11	12147	58.55	374.02110429685
11	12148	58.56	373.82642114355
11	12149	58.57	373.63173762395
11	12150	58.58	373.43705374029
11	12151	58.59	373.24236949483
11	12152	58.6	373.04768488982
11	12153	58.61	372.8529999275
11	12181	58.62	372.65831461014
11	12182	58.63	372.46362893997
11	12210	58.64	372.26894291926
11	12211	58.65	372.07425655025
11	12212	58.66	371.87956983519
11	12213	58.67	371.68488277632
11	12214	58.68	371.4901953759
11	12215	58.69	371.29550763618
11	12216	58.7	371.10081955941
11	12217	58.71	370.90613114782
11	12218	58.72	370.71144240367
11	12219	58.73	370.51675332921
11	12220	58.74	370.32206392668
11	12221	58.75	370.12737419832
11	12222	58.76	369.9326841464
11	12223	58.77	369.73799377314
11	12224	58.78	369.54330308079
11	12225	58.79	369.34861207161
11	12226	58.8	369.15392074783
11	12227	58.81	368.9592291117
11	12228	58.82	368.76453716545
11	12229	58.83	368.56984491135
11	12230	58.84	368.37515235162
11	12231	58.85	368.18045948851
11	12232	58.86	367.98576632427
11	12233	58.87	367.79107286113
11	12234	58.88	367.59637910133
11	12235	58.89	367.40168504712
11	12236	58.9	367.20699070074
11	12237	58.91	367.01229606443
11	12265	58.92	366.81760114042
11	12266	58.93	366.62290593096
11	12267	58.94	366.42821043828
11	12268	58.95	366.23351466463
11	12269	58.96	366.03881861224
11	12270	58.97	365.84412228335
11	12271	58.98	365.6494256802
11	12272	58.99	365.45472880502
11	12273	59	365.26003166005
11	12274	59.01	365.06533424753
11	12275	59.02	364.87063656969
11	12276	59.03	364.67593862877
11	12277	59.04	364.481240427
11	12278	59.05	364.28654196662
11	12279	59.06	364.09184324985
11	12280	59.07	363.89714427895
11	12281	59.08	363.70244505613
11	12282	59.09	363.50774558363
11	12283	59.1	363.31304586368
11	12284	59.11	363.11834589851
11	12285	59.12	362.92364569037
11	12286	59.13	362.72894524146
11	12287	59.14	362.53424455404
11	12288	59.15	362.33954363032
11	12289	59.16	362.14484247253
11	12290	59.17	361.95014108292
11	12291	59.18	361.75543946369
11	12292	59.19	361.56073761709
11	12293	59.2	361.36603554534
11	12294	59.21	361.17133325066
11	12295	59.22	360.97663073529
11	12296	59.23	360.78192800144
11	12297	59.24	360.58722505136
11	12298	59.25	360.39252188725
11	12299	59.26	360.19781851135
11	12300	59.27	360.00311492588
11	12301	59.28	359.80841113306
11	12302	59.29	359.61370713512
11	12303	59.3	359.41900293429
11	12304	59.31	359.22429853277
11	12305	59.32	359.0295939328
11	12306	59.33	358.8348891366
11	12307	59.34	358.64018414638
11	12308	59.35	358.44547896437
11	12309	59.36	358.25077359279
11	12310	59.37	358.05606803386
11	12311	59.38	357.8613622898
11	12312	59.39	357.66665636281
11	12313	59.4	357.47195025514
11	12314	59.41	357.27724396898
11	12315	59.42	357.08253750656
11	12316	59.43	356.88783087009
11	12317	59.44	356.69312406179
11	12318	59.45	356.49841708388
11	12319	59.46	356.30370993857
11	12320	59.47	356.10900262807
11	12321	59.48	355.9142951546
11	12322	59.49	355.71958752038
11	12323	59.5	355.5248797276
11	12351	59.51	355.3301717785
11	12352	59.52	355.13546367527
11	12353	59.53	354.94075542013
11	12354	59.54	354.7460470153
11	12355	59.55	354.55133846297
11	12356	59.56	354.35662976536
11	12357	59.57	354.16192092469
11	12358	59.58	353.96721194315
11	12359	59.59	353.77250282296
11	12360	59.6	353.57779356632
11	12361	59.61	353.38308417544
11	12389	59.62	353.18837465252
11	12390	59.63	352.99366499978
11	12418	59.64	352.79895521942
11	12419	59.65	352.60424531364
11	12420	59.66	352.40953528465
11	12421	59.67	352.21482513465
11	12422	59.68	352.02011486584
11	12423	59.69	351.82540448042
11	12424	59.7	351.6306939806
11	12425	59.71	351.43598336858
11	12426	59.72	351.24127264656
11	12427	59.73	351.04656181674
11	12428	59.74	350.85185088132
11	12429	59.75	350.6571398425
11	12430	59.76	350.46242870247
11	12431	59.77	350.26771746344
11	12432	59.78	350.0730061276
11	12433	59.79	349.87829469715
11	12434	59.8	349.68358317428
11	12435	59.81	349.4888715612
11	12436	59.82	349.29415986009
11	12437	59.83	349.09944807314
11	12438	59.84	348.90473620256
11	12439	59.85	348.71002425054
11	12440	59.86	348.51531221926
11	12441	59.87	348.32060011093
11	12442	59.88	348.12588792773
11	12443	59.89	347.93117567185
11	12444	59.9	347.73646334548
11	12445	59.91	347.54175095082
11	12473	59.92	347.34703849004
11	12474	59.93	347.15232596535
11	12475	59.94	346.95761337892
11	12476	59.95	346.76290073295
11	12477	59.96	346.56818802962
11	12478	59.97	346.37347527112
11	12479	59.98	346.17876245963
11	12480	59.99	345.98404959733
11	12481	60	345.78933668642

