file 70810906 1604233658                                        
version 2
run NoAlgorithm-0-20201101-13:25:24-40640
attr configname NoAlgorithm
attr datetime 20201101-13:25:24
attr experiment NoAlgorithm
attr inifile omnetpp.ini
attr iterationvars ""
attr iterationvarsf ""
attr measurement ""
attr network Scenario
attr processid 40640
attr repetition 0
attr replication #0
attr resultdir results
attr runnumber 0
attr seedset 0
param *.node[*].appl.runAlgorithm false
param *.playgroundSizeX 2500m
param *.playgroundSizeY 2500m
param *.playgroundSizeZ 50m
param *.annotations.draw true
param *.obstacles.debug false
param *.world.useTorus false
param *.world.use2D false
param *.traciScenarioManager.updateInterval 0.01s
param *.traciScenarioManager.host "\"localhost\""
param *.traciScenarioManager.port 9999
param *.traciScenarioManager.autoShutdown true
param *.traciScenarioManager.launchConfig "xmldoc(\"circle.launchd.xml\")"
param *.traciScenarioManager.configFile "\"circle.sumo.cfg\""
param *.traciScenarioManager.moduleType "\"smart_car=org.car2x.veins.nodes.Car normal_car=0 human_car=0\""
param *.traciScenarioManager.moduleName "\"smart_car=node normal_car=0 human_car=0\""
param *.traciScenarioManager.moduleDisplayString "\"\""
param *.connectionManager.sendDirect true
param *.connectionManager.maxInterfDist 2600m
param *.connectionManager.drawMaxIntfDist false
param *.**.nic.mac1609_4.useServiceChannel false
param *.**.nic.mac1609_4.txPower 20mW
param *.**.nic.mac1609_4.bitrate 6Mbps
param *.**.nic.phy80211p.minPowerLevel -110dBm
param *.**.nic.phy80211p.useNoiseFloor true
param *.**.nic.phy80211p.noiseFloor -98dBm
param *.**.nic.phy80211p.decider "xmldoc(\"config.xml\")"
param *.**.nic.phy80211p.analogueModels "xmldoc(\"config.xml\")"
param *.**.nic.phy80211p.usePropagationDelay true
param *.**.nic.phy80211p.antenna "xmldoc(\"antenna.xml\", \"/root/Antenna[@id='monopole']\")"
param *.node[*].nic.phy80211p.antennaOffsetY "0 m"
param *.node[*].nic.phy80211p.antennaOffsetZ "1.895 m"
param *.node[*].applType "\"PhantomTrafficAppLayer\""
param *.node[*].appl.headerLength "80 bit"
param *.node[*].appl.sendBeacons true
param *.node[*].appl.dataOnSch false
param *.node[*].appl.beaconInterval 5s
param *.node[*].veinsmobility.x 0
param *.node[*].veinsmobility.y 0
param *.node[*].veinsmobility.z 0
param *.node[*].veinsmobility.setHostSpeed false
param *.trafficManager.stopVehiclesAt 15
param *.trafficManager.stopVehiclesDuration 10
param *.trafficManager.numberOfVehicles 120
param *.trafficManager.percentageOfSmartCars 0.5
param *.trafficManager.percentageOfBrakingCars 0.05

vector 0 Scenario.node[0].veinsmobility posx ETV
vector 1 Scenario.node[0].veinsmobility posy ETV
vector 2 Scenario.node[1].veinsmobility posx ETV
vector 3 Scenario.node[1].veinsmobility posy ETV
vector 4 Scenario.node[2].veinsmobility posx ETV
vector 5 Scenario.node[2].veinsmobility posy ETV
vector 6 Scenario.node[3].veinsmobility posx ETV
vector 7 Scenario.node[3].veinsmobility posy ETV
vector 8 Scenario.node[4].veinsmobility posx ETV
vector 9 Scenario.node[4].veinsmobility posy ETV
vector 10 Scenario.node[5].veinsmobility posx ETV
vector 11 Scenario.node[5].veinsmobility posy ETV
vector 12 Scenario.node[6].veinsmobility posx ETV
vector 13 Scenario.node[6].veinsmobility posy ETV
vector 14 Scenario.node[7].veinsmobility posx ETV
vector 15 Scenario.node[7].veinsmobility posy ETV
vector 16 Scenario.node[8].veinsmobility posx ETV
vector 17 Scenario.node[8].veinsmobility posy ETV
vector 18 Scenario.node[9].veinsmobility posx ETV
vector 19 Scenario.node[9].veinsmobility posy ETV
vector 20 Scenario.node[10].veinsmobility posx ETV
vector 21 Scenario.node[10].veinsmobility posy ETV
vector 22 Scenario.node[11].veinsmobility posx ETV
vector 23 Scenario.node[11].veinsmobility posy ETV
vector 24 Scenario.node[12].veinsmobility posx ETV
vector 25 Scenario.node[12].veinsmobility posy ETV
vector 26 Scenario.node[13].veinsmobility posx ETV
vector 27 Scenario.node[13].veinsmobility posy ETV
vector 28 Scenario.node[14].veinsmobility posx ETV
vector 29 Scenario.node[14].veinsmobility posy ETV
vector 30 Scenario.node[15].veinsmobility posx ETV
vector 31 Scenario.node[15].veinsmobility posy ETV
vector 32 Scenario.node[16].veinsmobility posx ETV
vector 33 Scenario.node[16].veinsmobility posy ETV
vector 34 Scenario.node[17].veinsmobility posx ETV
vector 35 Scenario.node[17].veinsmobility posy ETV
vector 36 Scenario.node[18].veinsmobility posx ETV
vector 37 Scenario.node[18].veinsmobility posy ETV
vector 38 Scenario.node[19].veinsmobility posx ETV
vector 39 Scenario.node[19].veinsmobility posy ETV
vector 40 Scenario.node[20].veinsmobility posx ETV
vector 41 Scenario.node[20].veinsmobility posy ETV
vector 42 Scenario.node[21].veinsmobility posx ETV
vector 43 Scenario.node[21].veinsmobility posy ETV
vector 44 Scenario.node[22].veinsmobility posx ETV
vector 45 Scenario.node[22].veinsmobility posy ETV
vector 46 Scenario.node[23].veinsmobility posx ETV
vector 47 Scenario.node[23].veinsmobility posy ETV
vector 48 Scenario.node[24].veinsmobility posx ETV
vector 49 Scenario.node[24].veinsmobility posy ETV
vector 50 Scenario.node[25].veinsmobility posx ETV
vector 51 Scenario.node[25].veinsmobility posy ETV
vector 52 Scenario.node[26].veinsmobility posx ETV
vector 53 Scenario.node[26].veinsmobility posy ETV
vector 54 Scenario.node[27].veinsmobility posx ETV
vector 55 Scenario.node[27].veinsmobility posy ETV
vector 56 Scenario.node[28].veinsmobility posx ETV
vector 57 Scenario.node[28].veinsmobility posy ETV
vector 58 Scenario.node[29].veinsmobility posx ETV
vector 59 Scenario.node[29].veinsmobility posy ETV
vector 60 Scenario.node[30].veinsmobility posx ETV
vector 61 Scenario.node[30].veinsmobility posy ETV
vector 62 Scenario.node[31].veinsmobility posx ETV
vector 63 Scenario.node[31].veinsmobility posy ETV
vector 64 Scenario.node[32].veinsmobility posx ETV
vector 65 Scenario.node[32].veinsmobility posy ETV
vector 66 Scenario.node[33].veinsmobility posx ETV
vector 67 Scenario.node[33].veinsmobility posy ETV
vector 68 Scenario.node[34].veinsmobility posx ETV
vector 69 Scenario.node[34].veinsmobility posy ETV
vector 70 Scenario.node[35].veinsmobility posx ETV
vector 71 Scenario.node[35].veinsmobility posy ETV
vector 72 Scenario.node[36].veinsmobility posx ETV
vector 73 Scenario.node[36].veinsmobility posy ETV
vector 74 Scenario.node[37].veinsmobility posx ETV
vector 75 Scenario.node[37].veinsmobility posy ETV
vector 76 Scenario.node[38].veinsmobility posx ETV
vector 77 Scenario.node[38].veinsmobility posy ETV
vector 78 Scenario.node[39].veinsmobility posx ETV
vector 79 Scenario.node[39].veinsmobility posy ETV
vector 80 Scenario.node[40].veinsmobility posx ETV
vector 81 Scenario.node[40].veinsmobility posy ETV
vector 82 Scenario.node[41].veinsmobility posx ETV
vector 83 Scenario.node[41].veinsmobility posy ETV
vector 84 Scenario.node[42].veinsmobility posx ETV
vector 85 Scenario.node[42].veinsmobility posy ETV
vector 86 Scenario.node[43].veinsmobility posx ETV
vector 87 Scenario.node[43].veinsmobility posy ETV
vector 88 Scenario.node[44].veinsmobility posx ETV
vector 89 Scenario.node[44].veinsmobility posy ETV
vector 90 Scenario.node[45].veinsmobility posx ETV
vector 91 Scenario.node[45].veinsmobility posy ETV
vector 92 Scenario.node[46].veinsmobility posx ETV
vector 93 Scenario.node[46].veinsmobility posy ETV
vector 94 Scenario.node[47].veinsmobility posx ETV
vector 95 Scenario.node[47].veinsmobility posy ETV
vector 96 Scenario.node[48].veinsmobility posx ETV
vector 97 Scenario.node[48].veinsmobility posy ETV
vector 98 Scenario.node[49].veinsmobility posx ETV
vector 99 Scenario.node[49].veinsmobility posy ETV
vector 100 Scenario.node[50].veinsmobility posx ETV
vector 101 Scenario.node[50].veinsmobility posy ETV
vector 102 Scenario.node[51].veinsmobility posx ETV
vector 103 Scenario.node[51].veinsmobility posy ETV
vector 104 Scenario.node[52].veinsmobility posx ETV
vector 105 Scenario.node[52].veinsmobility posy ETV
vector 106 Scenario.node[53].veinsmobility posx ETV
vector 107 Scenario.node[53].veinsmobility posy ETV
vector 108 Scenario.node[54].veinsmobility posx ETV
vector 109 Scenario.node[54].veinsmobility posy ETV
vector 110 Scenario.node[55].veinsmobility posx ETV
vector 111 Scenario.node[55].veinsmobility posy ETV
vector 112 Scenario.node[56].veinsmobility posx ETV
vector 113 Scenario.node[56].veinsmobility posy ETV
vector 114 Scenario.node[57].veinsmobility posx ETV
vector 115 Scenario.node[57].veinsmobility posy ETV
vector 116 Scenario.node[58].veinsmobility posx ETV
vector 117 Scenario.node[58].veinsmobility posy ETV
vector 118 Scenario.node[59].veinsmobility posx ETV
vector 119 Scenario.node[59].veinsmobility posy ETV
vector 120 Scenario.node[0].veinsmobility speed ETV
vector 121 Scenario.node[1].veinsmobility speed ETV
vector 122 Scenario.node[2].veinsmobility speed ETV
vector 123 Scenario.node[3].veinsmobility speed ETV
vector 124 Scenario.node[4].veinsmobility speed ETV
vector 125 Scenario.node[5].veinsmobility speed ETV
vector 126 Scenario.node[6].veinsmobility speed ETV
vector 127 Scenario.node[7].veinsmobility speed ETV
vector 128 Scenario.node[8].veinsmobility speed ETV
vector 129 Scenario.node[9].veinsmobility speed ETV
vector 130 Scenario.node[10].veinsmobility speed ETV
vector 131 Scenario.node[11].veinsmobility speed ETV
vector 132 Scenario.node[12].veinsmobility speed ETV
vector 133 Scenario.node[13].veinsmobility speed ETV
vector 134 Scenario.node[14].veinsmobility speed ETV
vector 135 Scenario.node[15].veinsmobility speed ETV
vector 136 Scenario.node[16].veinsmobility speed ETV
vector 137 Scenario.node[17].veinsmobility speed ETV
vector 138 Scenario.node[18].veinsmobility speed ETV
vector 139 Scenario.node[19].veinsmobility speed ETV
vector 140 Scenario.node[20].veinsmobility speed ETV
vector 141 Scenario.node[21].veinsmobility speed ETV
vector 142 Scenario.node[22].veinsmobility speed ETV
vector 143 Scenario.node[23].veinsmobility speed ETV
vector 144 Scenario.node[24].veinsmobility speed ETV
vector 145 Scenario.node[25].veinsmobility speed ETV
vector 146 Scenario.node[26].veinsmobility speed ETV
vector 147 Scenario.node[27].veinsmobility speed ETV
vector 148 Scenario.node[28].veinsmobility speed ETV
vector 149 Scenario.node[29].veinsmobility speed ETV
vector 150 Scenario.node[30].veinsmobility speed ETV
vector 151 Scenario.node[31].veinsmobility speed ETV
vector 152 Scenario.node[32].veinsmobility speed ETV
vector 153 Scenario.node[33].veinsmobility speed ETV
vector 154 Scenario.node[34].veinsmobility speed ETV
vector 155 Scenario.node[35].veinsmobility speed ETV
vector 156 Scenario.node[36].veinsmobility speed ETV
vector 157 Scenario.node[37].veinsmobility speed ETV
vector 158 Scenario.node[38].veinsmobility speed ETV
vector 159 Scenario.node[39].veinsmobility speed ETV
vector 160 Scenario.node[40].veinsmobility speed ETV
vector 161 Scenario.node[41].veinsmobility speed ETV
vector 162 Scenario.node[42].veinsmobility speed ETV
vector 163 Scenario.node[43].veinsmobility speed ETV
vector 164 Scenario.node[44].veinsmobility speed ETV
vector 165 Scenario.node[45].veinsmobility speed ETV
vector 166 Scenario.node[46].veinsmobility speed ETV
vector 167 Scenario.node[47].veinsmobility speed ETV
vector 168 Scenario.node[48].veinsmobility speed ETV
vector 169 Scenario.node[49].veinsmobility speed ETV
vector 170 Scenario.node[50].veinsmobility speed ETV
vector 171 Scenario.node[51].veinsmobility speed ETV
vector 172 Scenario.node[52].veinsmobility speed ETV
vector 173 Scenario.node[53].veinsmobility speed ETV
vector 174 Scenario.node[54].veinsmobility speed ETV
vector 175 Scenario.node[55].veinsmobility speed ETV
vector 176 Scenario.node[56].veinsmobility speed ETV
vector 177 Scenario.node[57].veinsmobility speed ETV
vector 178 Scenario.node[58].veinsmobility speed ETV
vector 179 Scenario.node[59].veinsmobility speed ETV
vector 180 Scenario.node[0].veinsmobility acceleration ETV
vector 181 Scenario.node[0].veinsmobility co2emission ETV
vector 182 Scenario.node[1].veinsmobility acceleration ETV
vector 183 Scenario.node[1].veinsmobility co2emission ETV
vector 184 Scenario.node[2].veinsmobility acceleration ETV
vector 185 Scenario.node[2].veinsmobility co2emission ETV
vector 186 Scenario.node[3].veinsmobility acceleration ETV
vector 187 Scenario.node[3].veinsmobility co2emission ETV
vector 188 Scenario.node[4].veinsmobility acceleration ETV
vector 189 Scenario.node[4].veinsmobility co2emission ETV
vector 190 Scenario.node[5].veinsmobility acceleration ETV
vector 191 Scenario.node[5].veinsmobility co2emission ETV
vector 192 Scenario.node[6].veinsmobility acceleration ETV
vector 193 Scenario.node[6].veinsmobility co2emission ETV
vector 194 Scenario.node[7].veinsmobility acceleration ETV
vector 195 Scenario.node[7].veinsmobility co2emission ETV
vector 196 Scenario.node[8].veinsmobility acceleration ETV
vector 197 Scenario.node[8].veinsmobility co2emission ETV
vector 198 Scenario.node[9].veinsmobility acceleration ETV
vector 199 Scenario.node[9].veinsmobility co2emission ETV
vector 200 Scenario.node[10].veinsmobility acceleration ETV
vector 201 Scenario.node[10].veinsmobility co2emission ETV
vector 202 Scenario.node[11].veinsmobility acceleration ETV
vector 203 Scenario.node[11].veinsmobility co2emission ETV
vector 204 Scenario.node[12].veinsmobility acceleration ETV
vector 205 Scenario.node[12].veinsmobility co2emission ETV
vector 206 Scenario.node[13].veinsmobility acceleration ETV
vector 207 Scenario.node[13].veinsmobility co2emission ETV
vector 208 Scenario.node[14].veinsmobility acceleration ETV
vector 209 Scenario.node[14].veinsmobility co2emission ETV
vector 210 Scenario.node[15].veinsmobility acceleration ETV
vector 211 Scenario.node[15].veinsmobility co2emission ETV
vector 212 Scenario.node[16].veinsmobility acceleration ETV
vector 213 Scenario.node[16].veinsmobility co2emission ETV
vector 214 Scenario.node[17].veinsmobility acceleration ETV
vector 215 Scenario.node[17].veinsmobility co2emission ETV
vector 216 Scenario.node[18].veinsmobility acceleration ETV
vector 217 Scenario.node[18].veinsmobility co2emission ETV
vector 218 Scenario.node[19].veinsmobility acceleration ETV
vector 219 Scenario.node[19].veinsmobility co2emission ETV
vector 220 Scenario.node[20].veinsmobility acceleration ETV
vector 221 Scenario.node[20].veinsmobility co2emission ETV
vector 222 Scenario.node[21].veinsmobility acceleration ETV
vector 223 Scenario.node[21].veinsmobility co2emission ETV
vector 224 Scenario.node[22].veinsmobility acceleration ETV
vector 225 Scenario.node[22].veinsmobility co2emission ETV
vector 226 Scenario.node[23].veinsmobility acceleration ETV
vector 227 Scenario.node[23].veinsmobility co2emission ETV
vector 228 Scenario.node[24].veinsmobility acceleration ETV
vector 229 Scenario.node[24].veinsmobility co2emission ETV
vector 230 Scenario.node[25].veinsmobility acceleration ETV
vector 231 Scenario.node[25].veinsmobility co2emission ETV
vector 232 Scenario.node[26].veinsmobility acceleration ETV
vector 233 Scenario.node[26].veinsmobility co2emission ETV
vector 234 Scenario.node[27].veinsmobility acceleration ETV
vector 235 Scenario.node[27].veinsmobility co2emission ETV
vector 236 Scenario.node[28].veinsmobility acceleration ETV
vector 237 Scenario.node[28].veinsmobility co2emission ETV
vector 238 Scenario.node[29].veinsmobility acceleration ETV
vector 239 Scenario.node[29].veinsmobility co2emission ETV
vector 240 Scenario.node[30].veinsmobility acceleration ETV
vector 241 Scenario.node[30].veinsmobility co2emission ETV
vector 242 Scenario.node[31].veinsmobility acceleration ETV
vector 243 Scenario.node[31].veinsmobility co2emission ETV
vector 244 Scenario.node[32].veinsmobility acceleration ETV
vector 245 Scenario.node[32].veinsmobility co2emission ETV
vector 246 Scenario.node[33].veinsmobility acceleration ETV
vector 247 Scenario.node[33].veinsmobility co2emission ETV
vector 248 Scenario.node[34].veinsmobility acceleration ETV
vector 249 Scenario.node[34].veinsmobility co2emission ETV
vector 250 Scenario.node[35].veinsmobility acceleration ETV
vector 251 Scenario.node[35].veinsmobility co2emission ETV
vector 252 Scenario.node[36].veinsmobility acceleration ETV
vector 253 Scenario.node[36].veinsmobility co2emission ETV
vector 254 Scenario.node[37].veinsmobility acceleration ETV
vector 255 Scenario.node[37].veinsmobility co2emission ETV
vector 256 Scenario.node[38].veinsmobility acceleration ETV
vector 257 Scenario.node[38].veinsmobility co2emission ETV
vector 258 Scenario.node[39].veinsmobility acceleration ETV
vector 259 Scenario.node[39].veinsmobility co2emission ETV
vector 260 Scenario.node[40].veinsmobility acceleration ETV
vector 261 Scenario.node[40].veinsmobility co2emission ETV
vector 262 Scenario.node[41].veinsmobility acceleration ETV
vector 263 Scenario.node[41].veinsmobility co2emission ETV
vector 264 Scenario.node[42].veinsmobility acceleration ETV
vector 265 Scenario.node[42].veinsmobility co2emission ETV
vector 266 Scenario.node[43].veinsmobility acceleration ETV
vector 267 Scenario.node[43].veinsmobility co2emission ETV
vector 268 Scenario.node[44].veinsmobility acceleration ETV
vector 269 Scenario.node[44].veinsmobility co2emission ETV
vector 270 Scenario.node[45].veinsmobility acceleration ETV
vector 271 Scenario.node[45].veinsmobility co2emission ETV
vector 272 Scenario.node[46].veinsmobility acceleration ETV
vector 273 Scenario.node[46].veinsmobility co2emission ETV
vector 274 Scenario.node[47].veinsmobility acceleration ETV
vector 275 Scenario.node[47].veinsmobility co2emission ETV
vector 276 Scenario.node[48].veinsmobility acceleration ETV
vector 277 Scenario.node[48].veinsmobility co2emission ETV
vector 278 Scenario.node[49].veinsmobility acceleration ETV
vector 279 Scenario.node[49].veinsmobility co2emission ETV
vector 280 Scenario.node[50].veinsmobility acceleration ETV
vector 281 Scenario.node[50].veinsmobility co2emission ETV
vector 282 Scenario.node[51].veinsmobility acceleration ETV
vector 283 Scenario.node[51].veinsmobility co2emission ETV
vector 284 Scenario.node[52].veinsmobility acceleration ETV
vector 285 Scenario.node[52].veinsmobility co2emission ETV
vector 286 Scenario.node[53].veinsmobility acceleration ETV
vector 287 Scenario.node[53].veinsmobility co2emission ETV
vector 288 Scenario.node[54].veinsmobility acceleration ETV
vector 289 Scenario.node[54].veinsmobility co2emission ETV
vector 290 Scenario.node[55].veinsmobility acceleration ETV
vector 291 Scenario.node[55].veinsmobility co2emission ETV
vector 292 Scenario.node[56].veinsmobility acceleration ETV
vector 293 Scenario.node[56].veinsmobility co2emission ETV
vector 294 Scenario.node[57].veinsmobility acceleration ETV
vector 295 Scenario.node[57].veinsmobility co2emission ETV
vector 296 Scenario.node[58].veinsmobility acceleration ETV
vector 297 Scenario.node[58].veinsmobility co2emission ETV
vector 298 Scenario.node[59].veinsmobility acceleration ETV
vector 299 Scenario.node[59].veinsmobility co2emission ETV
0	18946 41486 2 1750 0.01 17.49 1749 33 186.972472 127271.78211311 12390293.20138
1	60432 48246 2 1750 0.01 17.49 1749 96.63906265315 479.631657 535846.89835289 189543706.31413
2	108678 43506 2 1750 0.01 17.49 1749 331.37689586779 481.86 774773.41470517 346188062.26928
3	152184 48221 2 1750 0.01 17.49 1749 54.597449303025 440.67981955558 402944.63538634 118518456.57241
4	200405 42440 2 1750 0.01 17.49 1749 29.8 144.82919910776 113543.04265095 9398521.4830771
5	242845 48218 2 1750 0.01 17.49 1749 66.118849892105 464.15056096975 456460.07247492 146090213.34484
6	291063 43460 2 1750 0.01 17.49 1749 369.57031337557 485.06 787613.90249633 356688724.46833
7	334523 48215 2 1750 0.01 17.49 1749 70.092756556487 471.77562193767 483132.71304161 160586963.65096
8	382738 41474 2 1750 0.01 17.49 1749 33 164.79376030318 121774.0066086 10805938.189904
9	424212 48212 2 1750 0.01 17.49 1749 62.995724686796 457.4182626626 433883.62954834 134032875.71515
10	472424 45252 2 1750 0.01 17.49 1749 349.76385431731 481.86 779254.4148336 349520310.74319
11	517676 49949 2 1750 0.01 17.49 1749 79.065128761423 474.84736938674 505785.01519715 172775866.48582
12	567625 44103 2 1750 0.01 17.49 1749 26.6 159.24092233262 109622.87488608 9210730.3143684
13	611728 49956 2 1750 0.01 17.49 1749 58.070767469763 455.02159542169 427309.96062112 131042976.39733
14	661684 45292 2 1750 0.01 17.49 1749 329.75349188485 478.66 769213.82089404 341197654.69694
15	706976 49965 2 1750 0.01 17.49 1749 92.274160403299 477.98537862887 527923.3771339 185005765.59455
16	756941 44197 2 1750 0.01 17.49 1749 29.8 179.05022702666 119691.99861141 11105518.811596
17	801138 49944 2 1750 0.01 17.49 1749 54.998095283056 441.80779878583 405219.03525557 119654188.83918
18	851082 45220 2 1750 0.01 17.49 1749 335.3323112012 485.06 781110.19731893 351786557.94628
19	896302 49945 2 1750 0.01 17.49 1749 94.955622272788 482.90189265275 534592.26365574 189296238.14398
20	946247 43232 2 1750 0.01 17.49 1749 33 199.00372525519 131370.82394216 13598072.744664
21	989479 49965 2 1750 0.01 17.49 1749 51.87856503401 428.60918901815 383776.27439022 108928804.77564
22	1039444 45267 2 1750 0.01 17.49 1749 315.57996770882 481.86 769410.27339864 342233849.83939
23	1084711 49944 2 1750 0.01 17.49 1749 108.15927366691 485.95605424148 556015.42045696 201584239.81087
24	1134655 44151 2 1750 0.01 17.49 1749 26.6 173.58578528993 113069.67556338 10146195.952563
25	1178806 49965 2 1750 0.01 17.49 1749 92.635882044684 482.01086053518 530953.62193704 187200016.16601
26	1228771 44113 2 1750 0.01 17.49 1749 26.6 193.46403985042 119765.45573273 12005339.425184
27	1272884 49943 2 1750 0.01 17.49 1749 46.949333798545 425.90716003273 376945.75514331 106190899.26202
28	1322827 45311 2 1750 0.01 17.49 1749 295.55257136764 478.66 756027.58528957 331623860.70499
29	1368138 49969 2 1750 0.01 17.49 1749 121.34746156039 489.0995991256 576851.38618869 213869573.46777
30	1418107 44206 2 1750 0.01 17.49 1749 29.8 213.21830651747 133119.57585744 14992910.202037
31	1462313 49977 2 1750 0.01 17.49 1749 43.894547242937 412.71365388034 356180.31801371 96251765.498606
32	1512290 45198 2 1750 0.01 17.49 1749 301.10405203375 485.06 767374.45639269 341601473.23502
33	1557488 49954 2 1750 0.01 17.49 1749 124.07005766175 494.02499719792 583799.50649994 218698237.78741
34	1607442 43225 2 1750 0.01 17.49 1749 33 233.18293678865 148131.61183053 18688264.083477
35	1650667 49938 2 1750 0.01 17.49 1749 40.771399272314 399.53588786106 336014.72236743 86915939.634405
36	1700605 45269 2 1750 0.01 17.49 1749 281.31800445767 481.86 752342.91541116 329816668.47952
37	1745874 49986 2 1750 0.01 17.49 1749 137.2534185724 497.09011154225 603936.2319387 231002905.7429
38	1795860 44122 2 1750 0.01 17.49 1749 26.6 227.68848242063 137092.12401126 16999899.300727
39	1839982 49947 2 1750 0.01 17.49 1749 35.827469527093 396.79272464377 328919.78937104 84425584.431191
40	1889929 45334 2 1750 0.01 17.49 1749 261.37429606968 478.66 735684.71992045 317116433.19132
41	1935263 49985 2 1750 0.01 17.49 1749 150.42076271749 500.20646064029 623434.55992337 243217893.55355
42	1985248 44201 2 1750 0.01 17.49 1749 29.8 247.39228538982 153725.71850994 21222782.220966
43	2029449 49965 2 1750 0.01 17.49 1749 32.789082089904 383.61950897486 309475.3746601 75840646.902596
44	2079414 45194 2 1750 0.01 17.49 1749 266.85607724516 485.06 746442.37155752 326349493.49627
45	2124608 49953 2 1750 0.01 17.49 1749 153.18449305071 505.15450869805 630672.92430621 248594456.20211
46	2174561 45321 2 1750 0.01 17.49 1749 341.7764128721 478.66 772086.68826174 343310119.33667
47	2219882 49962 2 1750 0.01 17.49 1749 61.341691584351 453.33341481134 425774.71669555 129833759.98806
48	2269844 43237 2 1750 0.01 17.49 1749 33 267.39726926384 172093.64473814 26274555.889369
49	2313081 49996 2 1750 0.01 17.49 1749 33.420954675988 370.46258670397 290738.52753717 67811605.715302
50	2363077 45247 2 1750 0.01 17.49 1749 247.16044525727 481.86 728147.00720178 312526671.61732
51	2408324 49977 2 1750 0.01 17.49 1749 166.34756347789 505.3629655455 649391.20682779 260693531.71073
52	2458301 44112 2 1750 0.01 17.49 1749 26.6 261.87740914987 161573.51441787 24373629.412086
53	2502413 49964 2 1750 0.01 17.49 1749 26.689586093957 367.67828925481 283292.57952492 65562096.432193
54	2552377 45302 2 1750 0.01 17.49 1749 227.18299975913 478.66 708147.48857148 297833578.90754
55	2597679 49955 2 1750 0.01 17.49 1749 179.49406387458 501.98249845167 666689.48903746 271868663.92452
56	2647634 44182 2 1750 0.01 17.49 1749 29.8 281.62139153593 181555.98928715 29995099.140108
57	2691816 49981 2 1750 0.01 17.49 1749 30.062232338576 354.52536406937 265880.04914832 58268137.13651
58	2741797 45195 2 1750 0.01 17.49 1749 232.64903671772 485.06 718350.74008113 306245287.29604
59	2786992 49979 2 1750 0.01 17.49 1749 182.29892843968 508.72410795294 674528.3718715 278099855.43078
60	2836971 43224 2 1750 0.01 17.49 1749 33 301.57975553042 203207.55694627 36529797.749384
61	2880195 49975 2 1750 0.01 17.49 1749 33.446683169941 341.38928554687 250072.37006704 51576304.974697
62	2930170 45296 2 1750 0.01 17.49 1749 212.94125497731 481.86 696751.38721409 290501603.77301
63	2975466 49948 2 1750 0.01 17.49 1749 195.71841147911 505.34492439648 690433.93063973 288493389.31761
64	3025414 44278 2 1750 0.01 17.49 1749 26.6 296.13112738315 193274.64305833 34337481.652257
65	3069692 49971 2 1750 0.01 17.49 1749 26.707239714487 337.70773975849 241881.00415304 49503089.803065
66	3119663 45816 2 1750 0.01 17.49 1749 192.99866775082 478.66 673706.79209972 274240299.00294
67	3165479 49967 2 1750 0.01 17.49 1749 211.69739400732 501.96941610905 704663.8141262 297738220.37723
68	3215446 44218 2 1750 0.01 17.49 1749 29.8 163.18196752882 115942.14015185 10057137.255369
69	3259664 49923 2 1750 0.01 17.49 1749 80.14518488678 475.2652207879 508121.8617146 174076209.69615
70	3309587 44956 2 1750 0.01 17.49 1749 29.8 315.8124732726 216143.37851493 41455562.409735
71	3354543 49988 2 1750 0.01 17.49 1749 30.08637324128 321.72013171545 227582.92414558 43574903.04095
72	3404531 45913 2 1750 0.01 17.49 1749 198.41572641711 485.06 683582.65109705 281959259.30673
73	3450444 49948 2 1750 0.01 17.49 1749 215.7062574705 508.69916591269 713143.14853551 304865105.04285
74	3500392 44792 2 1750 0.01 17.49 1749 33 335.65962688283 240261.11386297 49578334.77132
75	3545184 49950 2 1750 0.01 17.49 1749 33.435012550474 305.75403157313 215030.31857019 38318211.692837
76	3595134 46430 2 1749 0.01 17.48 1748 179.07757559094 481.86 659439.38885994 265322131.88785
77	3641564 49945 2 1749 0.01 17.48 1748 231.68132508999 505.33373477665 725318.38451659 312974453.40413
78	3691509 45685 2 1749 0.01 17.48 1748 26.6 330.00110771932 230137.41796868 46886107.466544
79	3737194 49953 2 1749 0.01 17.48 1748 26.719391386829 301.71974530051 206200.77640495 36465163.387018
80	3787147 46982 2 1749 0.01 17.48 1748 159.22175741416 478.66 634281.33483183 248525912.35471
81	3834129 49961 2 1749 0.01 17.48 1748 247.63454284643 501.99794179707 736199.1098331 320077104.81636
82	3884090 46299 2 1749 0.01 17.48 1748 29.8 349.65480531389 255137.61003011 55617675.41246
83	3930389 49919 2 1749 0.01 17.48 1748 30.073015404994 285.75721810457 195201.33374402 31947272.416761
84	3980308 46996 2 1749 0.01 17.48 1748 164.5430257423 485.06 644005.7278576 255684576.13227
85	4027304 49917 2 1749 0.01 17.48 1748 251.69425192848 508.71525154824 745250.2434691 328012737.11387
86	4077221 46445 2 1749 0.01 17.48 1748 33 369.55868972806 281384.35639545 65464623.436828
87	4123666 49945 2 1749 0.01 17.48 1748 33.41215996604 269.81688273402 185997.18166522 28072644.992833
88	4173611 47543 2 1749 0.01 17.48 1748 144.89488998559 481.86 617920.9322031 238608993.17706
89	4221154 49927 2 1749 0.01 17.48 1748 267.64423870087 505.3549668528 754583.49126579 334152662.40757
90	4271081 45143 2 1749 0.01 17.48 1748 355.18727777517 485.06 785337.93723748 355106626.27725
91	4316224 49918 2 1749 0.01 17.48 1748 58.97034516204 457.1173498947 430588.18276205 132752982.58702
92	4366142 47064 2 1749 0.01 17.48 1748 26.6 364.20902489247 271712.0098611 62439735.108471
93	4413206 49911 2 1749 0.01 17.48 1748 26.68927773201 265.73175084252 176662.43936934 26393556.778578
94	4463117 48075 2 1749 0.01 17.48 1748 125.04582182086 478.66 590616.39130701 221437510.95914
95	4511192 49919 2 1749 0.01 17.48 1748 283.57169168554 501.99332633023 762116.70617139 338989775.95006
96	4561111 47728 2 1749 0.01 17.48 1748 29.8 383.87293435716 298869.00792136 72978973.501117
97	4608839 49910 2 1749 0.01 17.48 1748 30.047245064966 249.79430449369 168990.9277014 23171332.52091
98	4658749 48170 2 1749 0.01 17.48 1748 130.3241057264 485.06 600199.59514833 227995505.12323
99	4706919 49915 2 1749 0.01 17.48 1748 287.68224638647 508.73310390152 771734.82815262 347671481.39515
100	4756834 49848 2 1749 0.01 17.48 1748 33 399.81470986224 327162.54175065 84663398.335627
101	4806682 51685 2 1749 0.01 17.48 1748 33.443550330127 233.87973389491 163244.89731037 20574589.962043
102	4858367 50458 2 1749 0.01 17.48 1748 112.78684833708 481.86 572015.33750024 210629828.62771
103	4908825 51694 2 1749 0.01 17.48 1748 303.60715231175 505.3613003249 777708.48653747 351454707.84156
104	4960519 50199 2 1749 0.01 17.48 1748 26.6 398.07729035546 317728.91961657 81228728.150895
105	5010718 51672 2 1749 0.01 17.48 1748 26.705125407135 229.74375638454 153233.75240882 18985294.012344
106	5062390 50981 2 1749 0.01 17.48 1748 101.27220117217 478.66 543055.85299732 193352298.62627
107	5113371 51689 2 1749 0.01 17.48 1748 319.50884052465 501.9683297963 781180.3416281 353267330.14044
108	5165060 50891 2 1749 0.01 17.48 1748 29.8 409.47318960472 346682.57176 93453962.11342
109	5215951 51686 2 1749 0.01 17.48 1748 30.065853436151 213.83139088281 149403.15625672 17024175.691381
110	5267637 51084 2 1749 0.01 17.48 1748 103.00365731126 485.06 552209.43617164 199208890.6921
111	5318721 51680 2 1749 0.01 17.48 1748 323.67024084445 508.70441120386 791777.02242584 362996357.50071
112	5370401 44941 2 1749 0.01 17.48 1748 33 152.79470225581 120126.43260202 10357662.444155
113	5415342 51668 2 1749 0.01 17.48 1748 74.190742927139 468.5249598313 485005.27608206 161245133.13415
114	5467010 46992 2 1749 0.01 17.48 1748 365.57916907456 481.86 780877.06455024 350875443.51951
115	5514002 51706 2 1749 0.01 17.48 1748 65.712109121177 463.65169813265 453689.54860288 144649452.66251
116	5565708 45841 2 1749 0.01 17.48 1748 26.6 139.35965915973 107001.05166124 8531880.9948411
117	5611549 51717 2 1749 0.01 17.48 1748 69.288610320668 470.88844914074 479315.06374386 158556920.97213
118	5663266 47038 2 1749 0.01 17.48 1748 364.24332176046 478.66 774630.97036937 345328178.32787
119	5710304 51685 2 1749 0.01 17.48 1748 72.448388753053 466.77727170265 476475.02659899 156627417.86641
120	5761989 51705 3 1750 0.02 17.49 1748 27.711370731183 27.769997667971 48509.373374128 1346201.2512539
121	5813694 51688 3 1750 0.02 17.49 1748 27.699107340127 27.769755164175 48501.331804068 1345754.9169648
122	5865382 51684 3 1750 0.02 17.49 1748 27.718959958787 27.769884680408 48509.166678036 1346189.6486056
123	5917066 51671 3 1750 0.02 17.49 1748 27.731581722424 27.769984470231 48519.115481916 1346741.8482188
124	5968737 51659 3 1750 0.02 17.49 1748 27.710134393259 27.769982023603 48513.753722705 1346444.3387228
125	6020396 51674 3 1750 0.02 17.49 1748 27.708035179544 27.769801120511 48505.577701476 1345990.5420859
126	6072070 51693 3 1750 0.02 17.49 1748 27.729470976415 27.769940632214 48523.148551042 1346965.7152317
127	6123763 51667 3 1750 0.02 17.49 1748 27.721087206813 27.769995732692 48516.249012095 1346582.7648852
128	6175430 51672 3 1750 0.02 17.49 1748 27.719659622423 27.7695511613 48511.14434584 1346299.3926138
129	6227102 51671 3 1750 0.02 17.49 1748 27.724478079437 27.769985769784 48520.386386396 1346812.4042925
130	6278773 51662 3 1750 0.02 17.49 1748 27.719820251569 27.769998864095 48517.148884257 1346632.7238899
131	6330435 51666 3 1750 0.02 17.49 1748 27.703744275073 27.769976283446 48503.612863862 1345881.4569416
132	6382101 51708 3 1750 0.02 17.49 1748 27.726831567303 27.769976755987 48518.811099348 1346724.9661088
133	6433809 51693 3 1750 0.02 17.49 1748 27.731098742577 27.769994143011 48522.822156462 1346947.603123
134	6485502 51687 3 1750 0.02 17.49 1748 27.719900616226 27.769951867346 48518.680709545 1346717.7342542
135	6537189 51686 3 1750 0.02 17.49 1748 27.711782479586 27.769940423801 48507.54581324 1346099.7164959
136	6588875 51677 3 1750 0.02 17.49 1748 27.722884750395 27.769985269268 48520.596975732 1346824.1024675
137	6640552 51684 3 1750 0.02 17.49 1748 27.728990402914 27.769997529064 48517.275386415 1346639.7123894
138	6692236 51681 3 1750 0.02 17.49 1748 27.725180273682 27.769635279755 48509.919663631 1346231.3964514
139	6743917 51688 3 1750 0.02 17.49 1748 27.722578805319 27.769987167085 48522.6465425 1346937.8600572
140	6795605 51683 3 1750 0.02 17.49 1748 27.705061641281 27.769917893839 48518.759323656 1346722.1355151
141	6847288 51694 3 1750 0.02 17.49 1748 27.710207608442 27.769889376768 48504.549929923 1345933.4734012
142	6898982 51673 3 1750 0.02 17.49 1748 27.7368836671 27.769975848309 48522.885401258 1346951.1020583
143	6950655 51670 3 1750 0.02 17.49 1748 27.701574657576 27.769962699914 48511.342735173 1346310.5517015
144	7002325 51671 3 1750 0.02 17.49 1748 27.724805646932 27.769993113976 48521.129867108 1346853.6722544
145	7053996 51683 3 1750 0.02 17.49 1748 27.69827592885 27.769218637424 48505.187078384 1345968.8171664
146	7105679 51705 3 1750 0.02 17.49 1748 27.721727293402 27.769936440229 48518.735737027 1346720.7871009
147	7157384 51683 3 1750 0.02 17.49 1748 27.732010217246 27.769868557713 48520.178691363 1346800.8580062
148	7209067 51695 3 1750 0.02 17.49 1748 27.71910575435 27.769129652723 48507.378600981 1346090.4035778
149	7260762 51698 3 1750 0.02 17.49 1748 27.715391033576 27.769950409858 48520.884808162 1346840.0835297
150	7312460 51695 3 1750 0.02 17.49 1748 27.731817330581 27.769973759087 48521.62344811 1346881.0519767
151	7364155 51688 3 1750 0.02 17.49 1748 27.715333166336 27.768978792736 48506.984670952 1346068.5657592
152	7415843 51685 3 1750 0.02 17.49 1748 27.723547109163 27.76998193862 48521.638615021 1346881.9016414
153	7467528 51695 3 1750 0.02 17.49 1748 27.722492086607 27.76992999502 48520.865370987 1346838.9845286
154	7519223 51695 3 1750 0.02 17.49 1748 27.718077878553 27.769477376454 48507.272165485 1346084.5068866
155	7570918 51716 3 1750 0.02 17.49 1748 27.705856315888 27.769893137364 48506.215788441 1346025.9166527
156	7622634 51722 3 1750 0.02 17.49 1748 27.723354413938 27.769998128234 48521.628239489 1346881.3393839
157	7674356 51694 3 1750 0.02 17.49 1748 27.730612355439 27.769978779769 48521.289815829 1346862.5553935
158	7726050 51649 3 1749 0.02 17.48 1747 27.701773333824 27.769866669916 48481.348724379 1345415.8418599
159	7777699 51685 3 1749 0.02 17.48 1747 27.733262523693 27.769995341667 48494.176954826 1346127.8470603
160	7829384 51678 3 1749 0.02 17.48 1747 27.700710071966 27.769999570713 48488.609828186 1345818.9532673
161	7881062 51639 3 1749 0.02 17.48 1747 27.721656701948 27.769596081281 48478.320851215 1345247.7727878
162	7932701 51662 3 1749 0.02 17.48 1747 27.735831850442 27.769967179573 48494.459302 1346143.5059917
163	7984363 51659 3 1749 0.02 17.48 1747 27.729426379292 27.769977337991 48491.966400521 1346005.1650558
164	8036022 51650 3 1749 0.02 17.48 1747 27.705051784913 27.769971033671 48479.272457975 1345300.6392987
165	8087672 51660 3 1749 0.02 17.48 1747 27.72191874778 27.769997576332 48491.097497559 1345956.9450741
166	8139332 51660 3 1749 0.02 17.48 1747 27.733759567727 27.769997846843 48492.247426736 1346020.7328956
167	8190992 51642 3 1749 0.02 17.48 1747 27.710397450413 27.76998777704 48488.43559815 1345809.2456906
168	8242634 51636 3 1749 0.02 17.48 1747 27.723458968684 27.769941685793 48480.001438255 1345341.0208284
169	8294270 51676 3 1749 0.02 17.48 1747 27.718684898221 27.769984267345 48493.698830471 1346101.3355932
170	8345946 51664 3 1749 0.02 17.48 1747 27.715742660845 27.769919578867 48486.91745768 1345724.9759104
171	8397610 51635 3 1749 0.02 17.48 1747 27.711743822993 27.769824075872 48476.731838449 1345159.6419031
172	8449245 51639 3 1749 0.02 17.48 1747 27.725242504426 27.7699854878 48492.067058035 1346010.7182789
173	8500884 51652 3 1749 0.02 17.48 1747 27.720499847146 27.769972733331 48488.802097524 1345829.5349174
174	8552536 51664 3 1749 0.02 17.48 1747 27.721725921179 27.76964650599 48481.936493575 1345448.4163055
175	8604200 51638 3 1749 0.02 17.48 1747 27.722861907459 27.769959502157 48492.421284619 1346030.405054
176	8655838 51691 3 1749 0.02 17.48 1747 27.712259966807 27.769992504306 48485.119239774 1345625.1735123
177	8707529 51651 3 1749 0.02 17.48 1747 27.705950006877 27.769839736492 48479.330071437 1345303.8145558
178	8759180 51670 3 1749 0.02 17.48 1747 27.724351617699 27.769978599109 48492.249931204 1346020.896399
179	8810850 51679 3 1749 0.02 17.48 1747 27.692554832512 27.769809583552 48483.381886269 1345528.790411
180	8862529 54610 4 1750 0.03 17.49 1747 -1.145902975404 0.7169111752745 -1.3084927604112 268.35930655514
181	8917139 51442 4 1750 0.03 17.49 1747 -0.80712526172784 9.2193105881247 7810.7148669859 46036.661686543
182	8968581 54659 4 1750 0.03 17.49 1747 -1.0641134530818 0.73603748783597 -1.5473295589853 246.90867677332
183	9023240 51591 4 1750 0.03 17.49 1747 -0.81042180059051 9.3334047843168 7758.6886310771 45076.127654
184	9074831 54668 4 1750 0.03 17.49 1747 -1.0518108504932 0.73057473878357 -1.6417861732322 255.50920196211
185	9129499 51681 4 1750 0.03 17.49 1747 -0.81160219672375 9.3000288422505 7743.8329967012 45491.62920028
186	9181180 54586 4 1750 0.03 17.49 1747 -1.1363220072237 0.72132724344129 -1.0369993963224 262.3416104567
187	9235766 51438 4 1750 0.03 17.49 1747 -0.69909601398716 9.2455578457358 7816.2972346852 45795.984942393
188	9287204 54617 4 1750 0.03 17.49 1747 -1.1178840594948 0.71854437930092 -0.48437409772291 258.48007786592
189	9341821 51438 4 1750 0.03 17.49 1747 -0.63828126233225 9.2184925618834 7812.3493277766 45667.846318383
190	9393259 54622 4 1750 0.03 17.49 1747 -1.0746209131113 0.72872395625403 -1.21618659091 243.68026505941
191	9447881 51705 4 1750 0.03 17.49 1747 -0.75339855912759 9.2927081866309 7740.3037913454 44982.080954603
192	9499586 54552 4 1750 0.03 17.49 1747 -1.1995561566437 0.71185573678783 -0.27839652815587 281.62625083019
193	9554138 51375 4 1750 0.03 17.49 1747 -0.83824403079345 9.1897819040603 7854.3669100548 46687.009800599
194	9605513 54636 4 1750 0.03 17.49 1747 -1.1447081752703 0.72084446457623 -1.631701223004 256.95469369155
195	9660149 51461 4 1750 0.03 17.49 1747 -0.82813610355064 9.2421350238876 7817.1089681754 45495.412619302
196	9711610 54670 4 1750 0.03 17.49 1747 -1.1477707210769 0.71779976664175 -1.1882331148012 253.19469615379
197	9766280 51595 4 1750 0.03 17.49 1747 -0.81630852040427 9.2143925430519 7770.2532354757 45402.803534439
198	9817875 54638 4 1750 0.03 17.49 1747 -1.1124154509162 0.7113131821832 0.9458587085831 263.70811897628
199	9872513 51438 4 1750 0.03 17.49 1747 -0.72132812533837 9.1831084758423 7843.023590684 45963.28495558
200	9923951 54630 4 1750 0.03 17.49 1747 -1.2218955755817 0.71583954199497 -0.42068795039079 284.63069903595
201	9978581 51292 4 1750 0.03 17.49 1747 -0.84551786559581 9.2090171211223 7871.1185104985 46748.907035749
202	10029873 54670 4 1750 0.03 17.49 1747 -1.1064709475612 0.7312482686995 -2.9653661087142 245.36962811724
203	10084543 51569 4 1750 0.03 17.49 1747 -0.66767219814374 9.3123497554407 7754.6009576559 44925.943418802
204	10136112 54612 4 1750 0.03 17.49 1747 -1.2209926411742 0.71029302902872 0.3416329574673 279.79593560553
205	10190724 51422 4 1750 0.03 17.49 1747 -0.8254611517992 9.1721254392747 7853.3980516268 46612.262833689
206	10242146 54592 4 1750 0.03 17.49 1747 -1.2112967498251 0.72150824695676 0.17520162055185 272.57355322429
207	10296738 51413 4 1750 0.03 17.49 1747 -0.8428429499864 9.2440956871159 7846.3904553733 46302.366605499
208	10348151 54623 4 1750 0.03 17.49 1747 -1.1459504603408 0.73224329011552 -1.8500282317628 273.91014410722
209	10402774 51417 4 1750 0.03 17.49 1747 -0.80964936872289 9.3175775668212 7829.0695007232 46244.736713039
210	10454191 54592 4 1750 0.03 17.49 1747 -1.1042788946902 0.72868089861124 -1.1950272010967 257.40717602681
211	10508783 51673 4 1750 0.03 17.49 1747 -0.82187371965557 9.2854482719093 7748.0581358333 45591.835453029
212	10560456 54571 4 1750 0.03 17.49 1747 -1.1714463267708 0.72233733595226 -0.24415578542225 279.77179903551
213	10615027 51375 4 1750 0.03 17.49 1747 -0.8407991011611 9.2499464232388 7856.6801909435 46572.627368434
214	10666402 54583 4 1750 0.03 17.49 1747 -1.1874675459694 0.71500921236236 -1.9133222009813 267.30168580737
215	10720985 51473 4 1750 0.03 17.49 1747 -0.83077405939989 9.2044159737651 7807.2902744118 45972.714187772
216	10772458 54655 4 1750 0.03 17.49 1747 -1.1510296256166 0.72122223841262 -1.0765133280088 246.47799474908
217	10827113 51660 4 1750 0.03 17.49 1747 -0.75600005728035 9.2443364780504 7752.3510288286 45110.193691944
218	10878773 54532 4 1750 0.03 17.49 1747 -1.1106835001272 0.70182563132235 -0.19039162958521 286.56981603529
219	10933305 51392 4 1750 0.03 17.49 1747 -0.83327599619177 9.1245333060914 7843.1637406302 46934.621940635
220	10984697 54599 4 1750 0.03 17.49 1747 -1.2274906726091 0.72788161117003 0.091756833939627 269.87826298981
221	11039296 51348 4 1750 0.03 17.49 1747 -0.82123373080821 9.2741671535444 7848.8910585453 46182.514650797
222	11090644 54650 4 1750 0.03 17.49 1747 -1.121095343392 0.75354093411413 -2.1886503124058 254.03924400432
223	11145294 51622 4 1750 0.03 17.49 1747 -0.81564715218014 9.4492516898165 7748.4159082338 45366.338932551
224	11196916 54541 4 1750 0.03 17.49 1747 -1.1858555168146 0.71071657692983 -1.3545285947824 272.87475043071
225	11251457 51363 4 1750 0.03 17.49 1747 -0.81752496023074 9.1804749797352 7843.6256980531 46226.835920888
226	11302820 54574 4 1750 0.03 17.49 1747 -1.1868602485112 0.73423941482034 -0.34446660305001 268.21924807434
227	11357394 51514 4 1750 0.03 17.49 1747 -0.83734362903479 9.3151294032319 7802.7326097297 46091.969248992
228	11408908 54531 4 1750 0.03 17.49 1747 -1.1316192279789 0.7131978451234 -1.5889102038599 281.45820136377
229	11463439 51496 4 1750 0.03 17.49 1747 -0.81559218712971 9.1975574450883 7817.5199546949 46605.85266093
230	11514935 54655 4 1750 0.03 17.49 1747 -1.073694971431 0.73295076798452 -3.2512240805087 255.34095839999
231	11569590 51639 4 1750 0.03 17.49 1747 -0.83756811708202 9.311537619542 7728.0926581323 45383.607467345
232	11621229 54562 4 1750 0.03 17.49 1747 -1.0791213926861 0.71861679404357 -0.32003688009503 280.079879504
233	11675791 51432 4 1750 0.03 17.49 1747 -0.82839350378732 9.2220741079824 7829.8022610747 46647.554942188
234	11727223 54589 4 1750 0.03 17.49 1747 -1.1820864479525 0.7302460608269 -0.087357329661231 273.83791602562
235	11781812 51413 4 1750 0.03 17.49 1747 -0.84445745122252 9.3054137635625 7842.1582166178 46333.007999744
236	11833225 54628 4 1750 0.03 17.49 1747 -1.1050459729677 0.71882974340518 -1.4357843820243 257.83791448176
237	11887853 51626 4 1750 0.03 17.49 1747 -0.83128686865197 9.2253257772587 7761.3592679049 45594.843400088
238	11939479 54624 4 1750 0.03 17.49 1747 -1.2303327035625 0.72842093310186 -0.67938757832202 292.00731254739
239	11994103 51335 4 1750 0.03 17.49 1747 -0.84690828177048 9.2899355159028 7861.9919041595 47082.563858264
240	12045438 54555 4 1750 0.03 17.49 1747 -1.2158949277364 0.71734199219833 -1.7104734594998 288.22099488789
241	12099993 51369 4 1750 0.03 17.49 1747 -0.84056548170783 9.2219469422392 7848.5318051392 46877.685495413
242	12151362 54671 4 1750 0.03 17.49 1747 -0.99238627538654 0.72510202212506 -2.0968277706302 246.2227512941
243	12206033 51613 4 1750 0.03 17.49 1747 -0.80481682136052 9.2681348224572 7750.9555993866 45049.280228296
244	12257646 54612 4 1750 0.03 17.49 1747 -1.2022253041504 0.71924347416434 0.20350422390045 277.91415463153
245	12312258 51425 4 1750 0.03 17.49 1747 -0.82779458158695 9.2292269773912 7848.1704411277 46549.61163707
246	12363683 54555 4 1750 0.03 17.49 1747 -1.1864524622798 0.71214951822078 -0.72932274779909 280.08428454758
247	12418238 51374 4 1750 0.03 17.49 1747 -0.76518203566443 9.1908392625012 7846.3376330875 46597.995403024
248	12469612 54639 4 1750 0.03 17.49 1747 -1.1068775254532 0.73165367527608 -1.0234063106431 252.61574177635
249	12524251 51599 4 1750 0.03 17.49 1747 -0.778915050455 9.3130484896737 7769.8608147686 45386.853070741
250	12575850 54666 4 1750 0.03 17.49 1747 -1.0990245105798 0.73693050299717 -0.53420578030625 249.83477490231
251	12630516 51603 4 1750 0.03 17.49 1747 -0.82186182708151 9.3353287286445 7761.9828161904 45290.557705105
252	12682119 54578 4 1750 0.03 17.49 1747 -1.2286525391392 0.72719490989819 -1.1076365062504 277.60359986014
253	12736697 51444 4 1750 0.03 17.49 1747 -0.84599133505091 9.2871521338235 7833.8407672926 46459.929479916
254	12788141 54546 4 1749 0.03 17.48 1746 -1.9107041819755 0.71848812466726 -2.8783646070519 289.80807302921
255	12842687 51232 4 1749 0.03 17.48 1746 -0.84098130438424 9.2278261323921 7860.3974907805 46806.598557847
256	12893919 54601 4 1749 0.03 17.48 1746 -1.0987697486414 0.72141880053529 -1.2698067954329 244.14795957022
257	12948520 51637 4 1749 0.03 17.48 1746 -0.83069734335498 9.2409187412237 7739.0984185489 44980.704923235
258	13000157 54554 4 1749 0.03 17.48 1746 -1.1970607627884 0.71126896127609 -0.95994179121526 269.78866337376
259	13054711 51343 4 1749 0.03 17.48 1746 -0.80679692814175 9.1798391232228 7844.8815211127 46065.678188662
260	13106054 54514 4 1749 0.03 17.48 1746 -2.7411760596998 0.74353562274503 -3.1702572195176 282.44701903493
261	13160568 51305 4 1749 0.03 17.48 1746 -0.71588882306604 9.3790714254206 7839.6928000885 46311.617554414
262	13211873 54639 4 1749 0.03 17.48 1746 -1.1484284323526 0.718403540926 -1.7834444235532 247.32973415161
263	13266512 51627 4 1749 0.03 17.48 1746 -0.81379126439354 9.2229702151895 7737.743987934 45094.206265554
264	13318139 54540 4 1749 0.03 17.48 1746 -1.1694640366478 0.70459786971675 -1.3997088999233 268.18139038336
265	13372679 51366 4 1749 0.03 17.48 1746 -0.82271311089828 9.1395913204192 7829.0990153567 46006.915938537
266	13424045 54541 4 1749 0.03 17.48 1746 -1.7838009413556 0.72062952244849 -0.26936830126338 280.87473016152
267	13478586 51368 4 1749 0.03 17.48 1746 -0.82533573974126 9.2407098758224 7852.4061733836 46541.604360167
268	13529954 54562 4 1749 0.03 17.48 1746 -1.1018766864435 0.73138030689073 -2.3646168338239 260.81538164686
269	13584516 51593 4 1749 0.03 17.48 1746 -0.80632979190559 9.298260475009 7750.6690468132 45637.115764271
270	13636109 54579 4 1749 0.03 17.48 1746 -1.1010296343013 0.72116434430356 -1.0489875551375 269.45413320588
271	13690688 51372 4 1749 0.03 17.48 1746 -0.81110693242586 9.245394471264 7828.3038388647 46082.77936641
272	13742060 54581 4 1749 0.03 17.48 1746 -1.1696315550946 0.71894989977359 -1.6576052066064 266.66056561326
273	13796641 51483 4 1749 0.03 17.48 1746 -0.83673465636673 9.22827327 7805.7102428111 45935.691856121
274	13848124 54520 4 1749 0.03 17.48 1746 -2.7471495256453 0.72000146943587 -1.6284131693929 285.04141737994
275	13902644 51374 4 1749 0.03 17.48 1746 -0.75693227340935 9.2369044151627 7844.2896828754 46523.433337636
276	13954018 54666 4 1749 0.03 17.48 1746 -1.1073469092644 0.7289528305197 -1.3426675005885 257.9799705689
277	14008684 51589 4 1749 0.03 17.48 1746 -0.67703805824688 9.291627395198 7754.2951332185 45592.458863902
278	14060273 54534 4 1749 0.03 17.48 1746 -1.1975769637502 0.7194331325195 -1.3267642755402 277.79114341608
279	14114807 51277 4 1749 0.03 17.48 1746 -0.83475783026519 9.2340311621835 7854.1054408516 46407.195523855
280	14166084 54532 4 1749 0.03 17.48 1746 -1.2249723658897 0.74053746761784 -2.4518319322155 273.0928779737
281	14220616 51314 4 1749 0.03 17.48 1746 -0.77618389896766 9.3680440063294 7831.1283349945 46127.876247405
282	14271930 54639 4 1749 0.03 17.48 1746 -1.1038082060985 0.73326103414821 -1.5591013940835 249.68367922109
283	14326569 51539 4 1749 0.03 17.48 1746 -0.84318683568616 9.3208420084671 7760.906847934 45196.958071866
284	14378108 54541 4 1749 0.03 17.48 1746 -1.1980388549276 0.72523159439157 -0.38218817983378 275.76220855388
285	14432649 51398 4 1749 0.03 17.48 1746 -0.81563928981196 9.2737501166032 7832.0652771508 46389.775332632
286	14484047 54616 4 1749 0.03 17.48 1746 -1.2348470621507 0.70384227837543 -2.1621655457096 263.46111387062
287	14538663 51405 4 1749 0.03 17.48 1746 -0.84573860016323 9.1294331292607 7822.9170687518 45712.437077815
288	14590068 54598 4 1749 0.03 17.48 1746 -1.1051202779313 0.70936553430556 -1.055371079725 252.72790535119
289	14644666 51592 4 1749 0.03 17.48 1746 -0.84076917370359 9.1629455998664 7759.7884782835 45375.154198413
290	14696258 54576 4 1749 0.03 17.48 1746 -1.2131840907387 0.71263661489169 -1.6605311337305 276.38695427422
291	14750834 51507 4 1749 0.03 17.48 1746 -0.8446149171477 9.1903570836052 7807.6914717194 46356.392398386
292	14802341 54571 4 1749 0.03 17.48 1746 -1.1608138255543 0.72723381932001 -0.85673697209252 262.43615804427
293	14856912 51548 4 1749 0.03 17.48 1746 -0.75424459987663 9.28436229992 7794.8794731212 45780.608796788
294	14908460 54631 4 1749 0.03 17.48 1746 -1.1160559749854 0.72078937898148 -1.1216827294444 257.89970007819
295	14963091 51566 4 1749 0.03 17.48 1746 -0.73533611754215 9.2337848366942 7764.9895703035 45586.887989336
296	15014657 54610 4 1749 0.03 17.48 1746 -1.1489038551961 0.71511111513445 -0.18854475253001 275.16011912972
297	15069267 51430 4 1749 0.03 17.48 1746 -0.81301346329037 9.2091411553152 7832.476626063 46387.933454285
298	15120697 54535 4 1749 0.03 17.48 1746 -1.1870611138875 0.74974848394049 -1.2839830108845 266.2516780658
299	15175232 51484 4 1749 0.03 17.48 1746 -0.80598717362817 9.4204832038598 7794.2390622643 45917.309796731
0	15226716 49421 1751 3498 17.5 34.97 1748 104.85439048221 478.66 551407.57216294 198201085.63865
1	15276137 50307 1751 3498 17.5 34.97 1748 33.413031671199 222.2288263069 157366.4610967 18692687.095934
2	15326444 49970 1751 3498 17.5 34.97 1748 29.8 409.38131646045 347422.19910326 93436660.678075
3	15376414 50291 1751 3498 17.5 34.97 1748 334.15136168986 505.36089816202 788435.19299694 359519945.15702
4	15426705 47926 1751 3498 17.5 34.97 1748 145.09285658918 481.86 618238.28572739 238800815.4491
5	15474631 50261 1751 3498 17.5 34.97 1748 30.049596811405 268.25194325876 181483.03701492 27272423.39318
6	15524892 47934 1751 3498 17.5 34.97 1748 26.6 369.30645345793 278799.42028277 65049410.393493
7	15572826 50293 1751 3498 17.5 34.97 1748 294.13348900324 508.73587283876 766771.79555761 343546239.98455
8	15623119 47095 1751 3498 17.5 34.97 1748 165.05735485938 478.66 641367.86456501 253053499.17612
9	15670214 50270 1751 3498 17.5 34.97 1748 33.44889334654 294.12986713993 204713.48487257 34604852.70085
10	15720484 48741 1751 3498 17.5 34.97 1748 29.8 349.50012888393 255518.11598136 55575971.217544
11	15769225 52062 1751 3498 17.5 34.97 1748 277.70017301877 505.34903718233 746691.2165484 327638006.65094
12	15821287 49272 1751 3498 17.5 34.97 1748 159.50489406328 485.06 637887.99880864 251719436.56388
13	15870559 52013 1751 3498 17.5 34.97 1748 26.684123449842 278.70097780503 186379.83038401 29625002.635153
14	15922572 47010 1751 3498 17.5 34.97 1748 33 329.49001956222 233895.92497442 47062840.392373
15	15969582 52045 1751 3498 17.5 34.97 1748 262.91697790176 501.96619054624 725079.33282941 310878419.1131
16	16021627 48516 1751 3498 17.5 34.97 1748 179.3139077209 481.86 659757.85956412 265524684.3321
17	16070143 52013 1751 3498 17.5 34.97 1748 30.066158745981 304.22453913528 210808.25740643 37457231.746321
18	16122156 48210 1751 3498 17.5 34.97 1748 26.6 335.06831537037 236385.70870994 49005332.40786
19	16170366 52015 1751 3498 17.5 34.97 1748 266.93340302205 508.71792526871 740527.47986257 323738676.01124
20	16222381 47696 1751 3498 17.5 34.97 1748 199.26733613043 478.66 679881.69327828 278488093.73317
21	16270077 51998 1751 3498 17.5 34.97 1748 33.442954737604 330.10099933202 237811.5524033 46851725.940263
22	16322075 47274 1751 3498 17.5 34.97 1748 29.8 315.31642481844 216124.7966689 41327361.274383
23	16369349 52025 1751 3498 17.5 34.97 1748 253.05302104545 505.34693441705 717874.67200391 306267018.44589
24	16421374 51598 1751 3498 17.5 34.97 1748 99.852319759 485.06 544867.98486884 194901666.28625
25	16472972 52039 1751 3498 17.5 34.97 1748 26.724205354115 206.68042457235 141846.51668321 15549563.820947
26	16525011 48145 1751 3498 17.5 34.97 1748 193.72794596703 485.06 677905.73943986 278181272.80995
27	16573156 52040 1751 3498 17.5 34.97 1748 26.710070738011 314.69677658472 218077.38692311 40709919.652755
28	16625196 45243 1751 3498 17.5 34.97 1748 33 295.28914179119 197464.43430388 34498629.981147
29	16670439 52047 1751 3498 17.5 34.97 1748 238.61086884026 501.9842564252 693636.42256465 287956995.94903
30	16722486 47375 1751 3498 17.5 34.97 1748 213.48198727791 481.86 696767.7322208 290610040.668
31	16769861 52023 1751 3497 17.5 34.96 1747 30.079664467796 339.88890326895 245844.41188641 50505464.513673
32	16821884 46721 1751 3497 17.5 34.96 1747 26.6 300.84015130099 198445.44037641 35951812.7332
33	16868605 51992 1751 3497 17.5 34.96 1747 242.49255206364 508.69992265663 709016.24382711 300580812.73307
34	16920597 47382 1751 3497 17.5 34.96 1747 233.44638093828 478.66 712728.26371555 301224925.85611
35	16967979 52015 1751 3497 17.5 34.96 1747 33.417297121985 360.87319097869 276369.3494893 62013865.844059
36	17019994 45795 1751 3497 17.5 34.96 1747 29.8 281.05431382543 181079.18313508 29852008.355952
37	17065789 52011 1751 3497 17.5 34.96 1747 231.30145838002 505.34421231173 683943.46474047 281690948.02895
38	17117800 47245 1751 3497 17.5 34.96 1747 227.95241300418 485.06 712925.32481834 302616081.92104
39	17165045 52019 1751 3497 17.5 34.96 1747 26.713164515651 348.82740250845 255495.95401828 54723113.022819
40	17217064 43511 1751 3497 17.5 34.96 1747 33 261.11072451126 165471.50671272 24564979.328416
41	17260575 52008 1751 3497 17.5 34.96 1747 214.45109862338 502.00506273759 656768.43970423 261783393.12983
42	17312583 47293 1751 3497 17.5 34.96 1747 247.6558505994 481.86 727594.36097085 312360672.55983
43	17359876 52007 1751 3497 17.5 34.96 1747 30.047141902345 369.22037167257 286881.04002413 66645008.199243
44	17411883 45278 1751 3497 17.5 34.96 1747 26.6 266.59222290696 164984.95152171 25569903.64764
45	17457161 52016 1751 3497 17.5 34.96 1747 220.72769634227 508.71858286849 673003.03508098 274464670.92415
46	17509177 50503 1751 3497 17.5 34.96 1747 33 396.23209569702 320084.78215795 81266245.993636
47	17559680 52007 1751 3497 17.5 34.96 1747 315.18029362152 502.00642504366 772628.17537571 346727524.35362
48	17611687 47358 1751 3497 17.5 34.96 1747 267.66073552188 478.66 739009.49640412 319701091.81469
49	17659045 51978 1751 3497 17.5 34.96 1747 37.256433931808 389.94769773373 320353.48011917 80142452.184204
50	17711023 44345 1751 3497 17.5 34.96 1747 29.8 246.89692052223 150623.30234085 20906439.264168
51	17755368 52031 1751 3497 17.5 34.96 1747 212.61951090299 502.46993992747 646053.41873683 254558827.32542
52	17807399 47252 1751 3497 17.5 34.96 1747 262.14134413797 485.06 742034.21891186 323407007.41636
53	17854651 51983 1751 3497 17.5 34.96 1747 28.733351758482 377.92286684093 298632.99372628 71731264.050581
54	17906634 42604 1751 3497 17.5 34.96 1747 33 226.91945981296 138124.49717501 16960572.753704
55	17949238 52026 1751 3497 17.5 34.96 1747 189.18502051601 492.61316820777 613050.47834415 232319655.7178
56	18001264 47286 1751 3497 17.5 34.96 1747 281.88499154199 481.86 751754.59562679 329637142.49645
57	18048550 52006 1751 3497 17.5 34.96 1747 38.514141452146 398.33020813742 332339.45544111 85630577.629767
58	18100556 43842 1751 3497 17.5 34.96 1747 26.6 232.3851489889 136009.01399113 17565377.531602
59	18144398 51999 1751 3497 17.5 34.96 1747 202.17433908142 501.11879897067 633285.03878232 246300475.7852
60	18196397 47355 1751 3497 17.5 34.96 1747 301.84319041361 478.66 758104.66737333 333373632.11782
61	18243752 52008 1751 3497 17.5 34.96 1747 48.364653739616 419.05376195844 367331.87186773 101169826.53664
62	18295760 42897 1751 3497 17.5 34.96 1747 29.8 212.67762307547 124565.02190695 14139462.625624
63	18338657 52015 1751 3497 17.5 34.96 1747 197.34245775455 491.34974756618 606141.80791658 226933643.83972
64	18390672 47221 1751 3497 17.5 34.96 1747 296.39506810118 485.06 764004.05461331 339383384.19746
65	18437893 52017 1751 3497 17.5 34.96 1747 39.8647315399 407.06124575836 345141.18857601 91592465.653352
66	18489910 42919 1751 3497 17.5 34.96 1747 33 192.73514507976 116603.03095746 11476632.715709
67	18532829 52000 1751 3497 17.5 34.96 1747 176.26235937963 481.50434401014 571091.57031713 204674904.05358
68	18584829 50778 1751 3497 17.5 34.96 1747 112.88308996434 481.86 571848.13266743 210584409.56426
69	18635607 52009 1751 3497 17.5 34.96 1747 30.065737378201 232.01748549084 158094.33573871 19743518.838717
70	18687616 47291 1751 3497 17.5 34.96 1747 316.07617136068 481.86 768725.84319714 341994206.17286
71	18734907 52004 1751 3497 17.5 34.96 1747 49.625196471173 427.41264879642 380204.87461941 107512570.4505
72	18786911 43213 1751 3497 17.5 34.96 1747 26.6 198.15191288535 111610.9694518 11629565.60116
73	18830124 52001 1751 3497 17.5 34.96 1747 188.11713329313 489.99407709737 592280.59066929 218396768.28213
74	18882125 47368 1751 3497 17.5 34.96 1747 335.92293700977 478.66 770026.74660209 342062574.35577
75	18929493 52015 1751 3497 17.5 34.96 1747 59.439496553084 448.10963885155 416573.36244133 125183528.14707
76	18981508 42951 1750 3497 17.49 34.96 1748 29.8 178.81392859053 103517.98493129 9319500.2808007
77	19024459 52016 1750 3497 17.49 34.96 1748 187.2075546407 480.34511499379 566115.25063664 200172379.65484
78	19076475 47286 1750 3497 17.49 34.96 1748 330.26503940497 485.06 779108.59685926 350427433.83722
79	19123761 52043 1750 3497 17.49 34.96 1748 50.871403816198 436.16279305143 393985.43625436 114392703.79024
80	19175804 43270 1750 3497 17.49 34.96 1748 33 158.95845173298 101129.16054614 7864490.3032907
81	19219074 52051 1750 3497 17.49 34.96 1748 166.44895040251 470.52798400108 529199.30000578 178013998.21635
82	19271125 47312 1750 3497 17.49 34.96 1748 349.91844771002 481.86 778883.37624785 349382103.29275
83	19318437 52058 1750 3497 17.49 34.96 1748 60.622868724158 456.4940687313 430443.52198645 132468822.00356
84	19370495 43598 1750 3497 17.49 34.96 1748 26.6 164.27916745864 92954.390357367 7550258.0214625
85	19414093 52026 1750 3497 17.49 34.96 1748 178.64178700746 478.98650329952 551362.9901113 191453197.65402
86	19466119 47395 1750 3497 17.49 34.96 1748 369.82220829542 478.66 774750.93924645 345416545.3998
87	19513514 52034 1750 3497 17.49 34.96 1748 70.455690506857 464.86965231001 467690.81440427 151910046.03977
88	19565548 43381 1750 3497 17.49 34.96 1748 29.8 144.63134330635 87841.887363782 6123015.6717715
89	19608929 52027 1750 3497 17.49 34.96 1748 180.3316989297 469.23685312939 525714.7224036 174103684.54128
90	19660956 51148 1750 3497 17.49 34.96 1748 26.6 401.39355976653 325977.16321982 84500451.08629
91	19712104 52052 1750 3497 17.49 34.96 1748 323.81799842053 508.70881513478 787755.5004563 359756512.6372
92	19764156 47261 1750 3497 17.49 34.96 1748 364.47286683205 485.06 786739.98521391 356169277.50501
93	19811417 52062 1750 3497 17.49 34.96 1748 61.987868709329 463.67182762209 445088.37095911 140313755.71046
94	19863479 43537 1750 3497 17.49 34.96 1748 33 124.78237988229 90988.831902207 5740305.4913898
95	19907016 52036 1750 3497 17.49 34.96 1748 159.58610083778 459.42183859421 486888.79770669 152041575.92034
96	19959052 47344 1750 3497 17.49 34.96 1748 365.39680448233 481.86 780872.26297163 350870509.66123
97	20006396 52066 1750 3497 17.49 34.96 1748 71.742707055546 469.76715370728 482110.18627482 159869797.45843
98	20058462 43931 1750 3497 17.49 34.96 1748 26.6 130.06026400579 79697.55333836 4977317.4144778
99	20102393 52058 1750 3497 17.49 34.96 1748 171.77101087705 467.86643904739 510097.57733092 165238229.8398
100	20154451 49124 1750 3497 17.49 34.96 1748 335.97418975605 478.66 770446.96351106 342237924.32567
101	20203575 53768 1750 3497 17.49 34.96 1748 87.017279836017 475.96384801687 518687.72456845 179814411.34995
102	20257343 45540 1750 3497 17.49 34.96 1748 29.8 112.6239187927 77485.333814853 4277720.7680997
103	20302883 53778 1750 3497 17.49 34.96 1748 175.39234652085 455.14241661266 485592.90853642 148987959.55034
104	20356661 49020 1750 3497 17.49 34.96 1748 360.27023546535 485.06 786188.17263121 355749560.40519
105	20405681 53775 1750 3497 17.49 34.96 1748 73.738470963837 474.79785390008 497204.87992613 168292757.17584
106	20459456 45503 1750 3497 17.49 34.96 1748 33 101.10943728327 85616.72858134 4717450.5716646
107	20504959 53785 1750 3497 17.49 34.96 1748 154.61090911348 433.85082239993 445949.74784466 127883763.76874
108	20558744 49083 1750 3497 17.49 34.96 1748 331.19074189367 481.86 774377.36207719 346029340.61369
109	20607827 53787 1750 3497 17.49 34.96 1748 94.866682137265 480.88304505607 533258.05117844 188331220.07552
110	20661614 45975 1750 3497 17.49 34.96 1748 26.6 102.84057368834 71495.070926827 3582849.884291
111	20707589 53786 1750 3497 17.49 34.96 1748 166.85146430893 447.12141885793 469438.7725404 140269233.29515
112	20761375 51787 1750 3497 17.49 34.96 1748 130.60774905014 478.66 598110.32032464 225972644.52159
113	20813162 53779 1750 3497 17.49 34.96 1748 33.42520738843 257.91902024211 177584.09145781 25240028.572394
114	20866941 51945 1750 3497 17.49 34.96 1748 29.8 383.9517468716 299754.13035859 73087305.546672
115	20918886 53781 1750 3497 17.49 34.96 1748 304.98987962738 505.3676097518 770629.97368001 345774851.12923
116	20972667 52216 1750 3497 17.49 34.96 1748 124.98504756807 485.06 593032.09715883 223600447.04331
117	21024883 53793 1750 3497 17.49 34.96 1748 26.700798154038 242.40873221416 160608.19507766 21253567.557877
118	21078676 50549 1750 3497 17.49 34.96 1748 33 363.97983178624 275149.04171552 62699523.341453
119	21129225 53746 1750 3497 17.49 34.96 1748 288.10549690606 501.97659043913 751770.12752676 330735735.80711
120	21182971 53801 1751 3498 17.5 34.97 1748 27.717126943224 27.769999923221 48511.235136858 1346304.5170052
121	21236772 53782 1751 3498 17.5 34.97 1748 22.194747122631 27.769946052447 47200.39725919 1277894.5565421
122	21290554 53780 1751 3498 17.5 34.97 1748 27.721609819031 27.769738607736 48506.131688226 1346021.2255838
123	21344334 53809 1751 3498 17.5 34.97 1748 20.370273594755 27.769989792891 46572.016229608 1247311.9948009
124	21398143 53815 1751 3498 17.5 34.97 1748 27.716684827258 27.769994031287 48509.535182992 1346210.2015674
125	21451958 53768 1751 3498 17.5 34.97 1748 18.176424131059 27.76918736351 45641.063045739 1203680.483396
126	21505726 53752 1751 3498 17.5 34.97 1748 27.721609819031 27.769992614167 48521.747914448 1346887.9879418
127	21559478 53753 1751 3498 17.5 34.97 1748 16.643952520655 27.769910473722 44523.909292429 1153551.4699094
128	21613231 53800 1751 3498 17.5 34.97 1748 27.719455865295 27.769934601525 48505.131420479 1345965.6975287
129	21667031 53763 1751 3498 17.5 34.97 1748 18.228352907099 27.76992281225 45688.446536363 1206031.6115596
130	21720794 53776 1751 3498 17.5 34.97 1748 27.712213151522 27.769818755087 48509.550207959 1346210.9974496
131	21774570 53794 1751 3498 17.5 34.97 1748 15.829796200502 27.768839901091 44506.76557581 1153278.1178577
132	21828364 53785 1751 3498 17.5 34.97 1748 27.723233201764 27.769989709517 48521.635641131 1346881.7544738
133	21882149 53786 1751 3498 17.5 34.97 1748 27.735576277086 27.769975599331 48522.851295334 1346949.2066565
134	21935935 53809 1751 3498 17.5 34.97 1748 16.470040606689 27.769964233724 43356.06372723 1102101.1816568
135	21989744 53740 1751 3497 17.5 34.96 1747 27.711286086429 27.769531878293 48478.842692134 1345276.7236993
136	22043484 53737 1751 3497 17.5 34.96 1747 15.824097283056 27.769938017208 44529.532785416 1155058.4927962
137	22097221 53740 1751 3497 17.5 34.96 1747 27.709258513669 27.769934213521 48483.06073182 1345510.9495012
138	22150961 53756 1751 3497 17.5 34.96 1747 13.247043323382 27.768543716356 43073.987947336 1093885.42722
139	22204717 53759 1751 3497 17.5 34.96 1747 27.729081023865 27.769975225155 48493.997661955 1346117.8825511
140	22258476 53764 1751 3497 17.5 34.96 1747 15.226672004596 27.769839067346 42174.329873944 1051303.7837461
141	22312240 53764 1751 3497 17.5 34.96 1747 27.718730705307 27.769559360137 48481.387575161 1345417.9828905
142	22366004 53770 1751 3497 17.5 34.96 1747 13.194832939875 27.769943144023 43100.514820075 1095389.6715861
143	22419774 53760 1751 3497 17.5 34.96 1747 20.355796004887 27.76992389766 46498.901911036 1244244.5159233
144	22473534 53777 1751 3497 17.5 34.96 1747 27.707477054845 27.769994556376 48479.3417287 1345304.5783916
145	22527311 53758 1751 3497 17.5 34.96 1747 10.483436381611 27.768867399631 41344.696631362 1026564.9648224
146	22581069 53755 1751 3497 17.5 34.96 1747 27.733346272357 27.769965758625 48495.558951464 1346204.5546906
147	22634824 53748 1751 3497 17.5 34.96 1747 10.930352746414 27.769936413683 41242.336979673 1016320.7935623
148	22688572 53764 1751 3497 17.5 34.96 1747 27.717925985428 27.769655231289 48480.496121711 1345368.5059478
149	22742336 53746 1751 3497 17.5 34.96 1747 10.433052323426 27.769980072145 41354.325922314 1027512.3766669
150	22796082 53757 1751 3497 17.5 34.96 1747 27.716334565669 27.769969937827 48482.899872062 1345501.9586958
151	22849839 53747 1751 3497 17.5 34.96 1747 7.6609052268181 27.768084733948 39267.947300628 952038.23974091
152	22903586 53771 1751 3497 17.5 34.96 1747 27.718092232287 27.769997914434 48495.612081121 1346207.5221089
153	22957357 53749 1751 3497 17.5 34.96 1747 7.8971440044436 27.769916431462 39237.248137292 944991.41920577
154	23011106 53761 1751 3497 17.5 34.96 1747 27.718511199861 27.769902864176 48480.816368384 1345386.2503352
155	23064867 53737 1751 3497 17.5 34.96 1747 27.717399955468 27.769997494055 48480.20566889 1345352.3924363
156	23118604 53769 1751 3497 17.5 34.96 1747 7.6121024960643 27.769858526676 39276.287793746 952900.92783636
157	23172373 53730 1751 3497 17.5 34.96 1747 27.716475100798 27.769957737428 48481.046647347 1345399.1305647
158	23226103 53816 1750 3497 17.49 34.96 1748 5.0173004618433 27.76892350955 36871.049984736 872998.75969748
159	23279919 53809 1750 3497 17.49 34.96 1748 27.725465090732 27.769990963901 48521.46470783 1346872.2506944
160	23333728 53753 1750 3497 17.49 34.96 1748 5.0070958510368 27.760700281956 36880.311407868 868991.42916026
161	23387481 53763 1750 3497 17.49 34.96 1748 27.702266218111 27.769873579005 48506.520108311 1346042.8050817
162	23441244 53783 1750 3497 17.49 34.96 1748 4.8960745764645 27.769987865036 36871.003039532 873870.22577306
163	23495027 53799 1750 3497 17.49 34.96 1748 27.715945180034 27.769998028687 48510.960259333 1346289.2888305
164	23548826 53779 1750 3497 17.49 34.96 1748 2.7387397340987 27.767551637078 34120.495096152 790136.08523567
165	23602605 53783 1750 3497 17.49 34.96 1748 22.216354724445 27.769974954515 47233.36040583 1279641.1391228
166	23656388 53789 1750 3497 17.49 34.96 1748 27.718618436964 27.769996128367 48519.489929124 1346762.6533024
167	23710177 53792 1750 3497 17.49 34.96 1748 2.7409952053741 27.761353602566 34126.877267618 788299.84789258
168	23763969 53739 1750 3497 17.49 34.96 1748 27.716880009164 27.769578603849 48506.834629441 1346060.2262322
169	23817708 53794 1750 3497 17.49 34.96 1748 2.7077096825116 27.769883645674 34118.05241071 790972.57771281
170	23871502 53779 1750 3497 17.49 34.96 1748 27.705136794663 27.769940500213 48511.979976625 1346345.9392324
171	23925281 53769 1750 3497 17.49 34.96 1748 1.8131805292206 27.766055830409 31132.820362282 706661.20308608
172	23979050 53754 1750 3497 17.49 34.96 1748 27.716880009164 27.769985260854 48520.853549203 1346838.3609694
173	24032804 53807 1750 3497 17.49 34.96 1748 1.8024980132847 27.752898288416 31141.17388342 705535.90063138
174	24086611 53773 1750 3497 17.49 34.96 1748 27.716195599156 27.769380404799 48505.27896917 1345973.9041047
175	24140384 53787 1750 3497 17.49 34.96 1748 1.8078171870595 27.76997602753 31126.295310035 707200.14884954
176	24194171 53794 1750 3497 17.49 34.96 1748 27.706557707145 27.769985355447 48510.758206694 1346278.0861447
177	24247965 53791 1750 3497 17.49 34.96 1748 20.341601949175 27.769687784354 46538.777250972 1245577.7141774
178	24301756 53784 1750 3497 17.49 34.96 1748 27.731466494397 27.769925849473 48522.210815514 1346913.6497737
179	24355540 53792 1750 3497 17.49 34.96 1748 18.245242711227 27.769961847896 45635.913995323 1203324.9512657
180	24409332 56737 1751 3498 17.5 34.97 1748 -1.158516109281 0.72309967847239 0.89095340442569 274.75349647261
181	24466069 53599 1751 3498 17.5 34.97 1748 -0.82718807979828 9.252291157889 7835.5063241903 46448.318622391
182	24519668 56688 1751 3498 17.5 34.97 1748 -2.0728382442982 0.71688304668953 -555.31825218902 832.60742442317
183	24576356 50179 1751 3498 17.5 34.97 1748 -0.79176427600851 9.2179820531306 5835.6266396278 31152.236535221
184	24626535 56806 1751 3498 17.5 34.97 1748 -1.0705549292791 0.72636206470165 0.04699039612639 243.20039775002
185	24683341 53725 1751 3498 17.5 34.97 1748 -0.83645368884975 9.2775641019289 7770.1577540354 45048.974624325
186	24737066 56579 1751 3498 17.5 34.97 1748 -2.4125121961575 0.71675001033071 -738.33765138854 1171.0714470783
187	24793645 49169 1751 3498 17.5 34.97 1748 -0.83981836986192 9.2149629662052 5535.406990441 28886.783369596
188	24842814 56721 1751 3498 17.5 34.97 1748 -1.1973715229487 0.73537399399584 0.12708098336596 270.40330993509
189	24899535 53600 1751 3498 17.5 34.97 1748 -0.7925196399608 9.3307836933783 7826.7238607758 46199.870703718
190	24953135 56516 1751 3498 17.5 34.97 1748 -2.533327470417 0.72303830263394 -958.12151235436 1616.9033257578
191	25009651 48128 1751 3498 17.5 34.97 1748 -0.80340428306722 9.2557106418507 5141.8080249073 26426.311358168
192	25057779 56694 1751 3498 17.5 34.97 1748 -1.1394980258771 0.72594411279141 -1.0547853178057 281.56678437258
193	25114473 53366 1751 3498 17.5 34.97 1748 -0.83972850876013 9.2684363233164 7884.9889503989 46601.482750244
194	25167839 56474 1751 3498 17.5 34.97 1748 -2.3981775687467 0.73527617618687 -1109.4870138581 1885.9472891972
195	25224313 47120 1751 3498 17.5 34.97 1748 -0.84184198678486 9.1618712046698 4871.2153834073 24296.274974961
196	25271433 56788 1751 3498 17.5 34.97 1748 -0.94180670654147 0.72335072722503 0.30607564737899 242.25028433457
197	25328221 53794 1751 3498 17.5 34.97 1748 -0.79058700151862 9.2537639106427 7751.1621463858 45039.724971462
198	25382015 56487 1751 3498 17.5 34.97 1748 -2.6613726495089 0.70842317030291 -954.02045726416 1627.6752714762
199	25438502 47974 1751 3498 17.5 34.97 1748 -0.80891188967592 9.164432116334 5221.4676298443 27362.114591404
200	25486476 56781 1751 3498 17.5 34.97 1748 -1.136150059174 0.71982570036191 0.45944208803128 248.27605501629
201	25543257 53706 1751 3498 17.5 34.97 1748 -0.76316399388968 9.2336189236434 7790.5780624922 45283.153806807
202	25596963 56483 1751 3498 17.5 34.97 1748 -2.7553574992286 0.73462586390676 -1190.7194651086 2126.9878676507
203	25653446 47216 1751 3498 17.5 34.97 1748 -0.80596346334505 9.3334980266959 4797.7420333093 23776.688020545
204	25700662 56643 1751 3498 17.5 34.97 1748 -1.2338075178558 0.71440651497028 0.040429388385377 301.35549140653
205	25757305 53450 1751 3498 17.5 34.97 1748 -0.84611983840291 9.20237603168 7891.9565520863 47528.923101314
206	25810755 56689 1751 3498 17.5 34.97 1748 -1.2031861109428 0.70609859277013 -0.74989105000611 276.25220778516
207	25867444 53594 1751 3498 17.5 34.97 1748 -0.81984487415872 9.1500538835274 7833.9259280845 46453.662112011
208	25921038 56406 1751 3498 17.5 34.97 1748 -4.0890864970279 1.082388828231 -1127.4829155149 2005.3640144352
209	25977444 47163 1751 3498 17.5 34.97 1748 -0.82148447305578 9.1626866449336 4692.1319870781 22688.74794271
210	26024607 56711 1751 3497 17.5 34.96 1747 -1.0537380958926 0.72492368699386 0.41192288133765 255.90549843766
211	26081318 53735 1751 3497 17.5 34.96 1747 -0.83263949334998 9.2673362751631 7764.482366982 45618.4880591
212	26135053 56388 1751 3497 17.5 34.96 1747 -2.7866433224034 0.71982692553796 -1193.692772575 2150.0350109434
213	26191441 46863 1751 3497 17.5 34.96 1747 -0.84241873532653 9.2345268862377 4861.3951758327 23937.573219786
214	26238304 56671 1751 3497 17.5 34.96 1747 -1.7074633403929 0.72757109148114 1.8239422165614 281.6687631937
215	26294975 53555 1751 3497 17.5 34.96 1747 -0.81319564684562 9.2806289217763 7834.6049270456 46768.809991715
216	26348530 56326 1751 3497 17.5 34.96 1747 -2.864996570762 0.7006521972535 -1450.6949390703 2761.5835729587
217	26404856 46039 1751 3497 17.5 34.96 1747 -0.77752724130165 9.1080774097186 4475.5022872096 21226.664635468
218	26450895 56669 1751 3497 17.5 34.96 1747 -1.2182980682702 0.70618851900193 0.84248196333654 281.00472212479
219	26507564 53416 1751 3497 17.5 34.96 1747 -0.80056288167365 9.1491668139869 7881.2661712972 46651.386997918
220	26560980 56243 1751 3497 17.5 34.96 1747 -4.5000000000002 2.4558283251825 -1253.9010470863 2838.1691324682
221	26617223 46448 1751 3497 17.5 34.96 1747 -0.80850579626747 12.214051519687 4819.1524042925 24807.450036255
222	26663671 56707 1751 3497 17.5 34.96 1747 -1.0995271469696 0.71845905838543 1.1398205319978 254.21561132995
223	26720378 53679 1751 3497 17.5 34.96 1747 -0.70046104434488 9.22924518271 7786.531415404 45591.725636853
224	26774057 56259 1751 3497 17.5 34.96 1747 -2.9808148773414 0.7184748888843 -1455.6597710256 2806.5081662848
225	26830316 46069 1751 3497 17.5 34.96 1747 -0.77419600878709 9.2241476428265 4520.1948408216 21931.71716326
226	26876385 56576 1751 3497 17.5 34.96 1747 -2.3932390336711 0.7095840320904 -740.29778362223 1173.8227614366
227	26932961 49054 1751 3497 17.5 34.96 1747 -0.82474247039184 9.1554691264163 5512.7190743139 29113.149483917
228	26982015 56715 1751 3497 17.5 34.96 1747 -1.230175590818 0.74608675441326 0.67735935039259 248.86323271139
229	27038730 53608 1751 3497 17.5 34.96 1747 -0.78527500595341 9.3980369528064 7808.2129479756 45262.341213849
230	27092338 56252 1751 3497 17.5 34.96 1747 -2.9641707903362 0.70127658349008 -1725.3150738416 3482.5754330604
231	27148590 45056 1751 3497 17.5 34.96 1747 -0.83399112602724 9.1186891983449 4141.8362553422 19218.869787836
232	27193646 56690 1751 3497 17.5 34.96 1747 -1.2300754335595 0.71675264982503 0.19168729335597 281.53793724242
233	27250336 53491 1751 3497 17.5 34.96 1747 -0.78965077801313 9.2176257597034 7861.2419006203 46678.835677358
234	27303827 56313 1751 3497 17.5 34.96 1747 -4.5000000000002 0.73381366371201 -1683.1167760078 3315.6676352914
235	27360140 44889 1751 3497 17.5 34.96 1747 -0.68286414965389 9.2866923559105 3966.6611365191 17580.92548606
236	27405029 56765 1751 3497 17.5 34.96 1747 -1.1744512445876 0.72216718565201 0.59690714092504 253.3816359707
237	27461794 53723 1751 3497 17.5 34.96 1747 -0.78249991168865 9.2510385773619 7774.5116235806 45503.970206466
238	27515517 56258 1751 3497 17.5 34.96 1747 -2.9666417384046 0.71159526216178 -1732.5124408779 3519.518691234
239	27571775 44965 1751 3497 17.5 34.96 1747 -0.70644243039393 9.1802421900685 4191.8234146057 19268.722230812
240	27616740 56699 1751 3497 17.5 34.96 1747 -1.1942184768849 0.73380644010363 0.27603118439998 256.42166403244
241	27673439 53605 1751 3497 17.5 34.96 1747 -0.84163159329667 9.3255004219213 7807.6774501663 45594.806239336
242	27727044 56186 1751 3497 17.5 34.96 1747 -3.04820636206 0.72584333813595 -2008.7042202537 4230.6624004508
243	27783230 43888 1751 3497 17.5 34.96 1747 -0.75409191208 9.2741077278006 3830.2253532929 16663.737519598
244	27827118 56669 1751 3497 17.5 34.96 1747 -1.2028883930178 0.71995408685552 -0.13967735110789 286.43617677579
245	27883787 53405 1751 3497 17.5 34.96 1747 -0.81577108921153 9.2395902763208 7882.107771058 46859.338487332
246	27937192 56188 1751 3497 17.5 34.96 1747 -3.1105357954758 0.87879689441479 -1985.8940051076 4174.5123760208
247	27993380 43980 1751 3497 17.5 34.96 1747 -0.66997192248435 9.1116105369822 3696.029409872 15396.813998877
248	28037360 56752 1751 3497 17.5 34.96 1747 -1.1463303725623 0.71536607336533 -2.2747679952587 256.35969903744
249	28094112 53671 1751 3497 17.5 34.96 1747 -0.70437193133261 9.2062250040258 7765.4846296347 45458.91636459
250	28147783 56719 1751 3497 17.5 34.96 1747 -1.0051223919834 0.73209888749588 -0.75536214478262 266.43219442221
251	28204502 53651 1751 3497 17.5 34.96 1747 -0.73716552640095 9.3113730463078 7779.5530752447 46012.790085545
252	28258153 56139 1751 3497 17.5 34.96 1747 -3.0464017300144 0.70593835314519 -2013.7245352257 4277.540499477
253	28314292 43974 1751 3497 17.5 34.96 1747 -0.71970207704358 9.1491798583919 3857.7563827456 17209.191620003
254	28358266 56752 1750 3497 17.49 34.96 1748 -1.1823687923606 0.71910287401131 -0.14081263488883 266.13970157379
255	28415018 53614 1750 3497 17.49 34.96 1748 -0.77361992501789 9.2325800345848 7815.7637354433 46026.139767712
256	28468632 56152 1750 3497 17.49 34.96 1748 -3.0963659606398 0.72589650099246 -2273.3737464391 4913.3810857121
257	28524784 43147 1750 3497 17.49 34.96 1748 -0.7764309045631 9.2635934837295 3496.1867818883 14118.728950101
258	28567931 56678 1750 3497 17.49 34.96 1748 -1.1479672149292 0.7150924859296 -0.97947867915593 269.8815398984
259	28624609 53572 1750 3497 17.49 34.96 1748 -0.83378249238527 9.2060962686761 7841.5170451356 46137.005842689
260	28678181 56183 1750 3497 17.49 34.96 1748 -3.1795367235633 0.72992227721898 -2272.9958180662 4942.7000122232
261	28734364 43245 1750 3497 17.49 34.96 1748 -0.69463531502056 9.2983486645264 3336.8821894621 13299.208115897
262	28777609 56770 1750 3497 17.49 34.96 1748 -1.1183343816334 0.73194368882241 -0.27746343589179 260.07949026033
263	28834379 53750 1750 3497 17.49 34.96 1748 -0.78845585612472 9.3105356453231 7773.3735747871 45772.731891376
264	28888129 56103 1750 3497 17.49 34.96 1748 -3.1033476989702 0.70050555312235 -2285.4547474318 4999.8896860904
265	28944232 43033 1750 3497 17.49 34.96 1748 -0.81147359266905 9.1135784436723 3544.1373139584 14783.879197491
266	28987265 56768 1750 3497 17.49 34.96 1748 -1.12709957466 0.72328325171007 -0.82932396747601 265.12401453428
267	29044033 53686 1750 3497 17.49 34.96 1748 -0.82400815991115 9.2561272255312 7794.4493918683 45958.2146962
268	29097719 56108 1750 3497 17.49 34.96 1748 -3.2423660633016 0.72450666822199 -2500.4315712055 5491.4424138656
269	29153827 42179 1750 3497 17.49 34.96 1748 -0.75408282754734 9.2626866251086 3168.6256492588 11890.777616587
270	29196006 56628 1750 3497 17.49 34.96 1748 -2.0884910700151 0.71840016583202 -553.15749200754 858.0733770277
271	29252634 50157 1750 3497 17.49 34.96 1748 -0.80867555554362 9.2292813902298 5895.9376399909 32109.335703792
272	29302791 56735 1750 3497 17.49 34.96 1748 -1.1749625203084 0.73056184824232 1.2079709442872 275.56764021304
273	29359526 53468 1750 3497 17.49 34.96 1748 -0.83820238014343 9.3065755205519 7862.3562333669 46509.116989336
274	29412994 56121 1750 3497 17.49 34.96 1748 -3.2290995878556 0.69004248767222 -2500.5282512066 5533.1944128057
275	29469115 42252 1750 3497 17.49 34.96 1748 -0.64029709993371 9.0380477839192 3079.9722801371 11164.103353396
276	29511367 56777 1750 3497 17.49 34.96 1748 -1.0419267599804 0.7228156719524 0.48445140758027 247.40649495191
277	29568144 53721 1750 3497 17.49 34.96 1748 -0.60814499171705 9.2561936130467 7771.3203982127 45270.661741957
278	29621865 56067 1750 3497 17.49 34.96 1748 -3.195089606541 0.71019278906874 -2504.1372258071 5536.972226604
[...]
142	65042960 31009 6994 8001 69.93 80 1008 27.703461281648 27.76972229235 27965.735975738 775875.61828831
45	65073969 30006 6994 8001 69.93 80 1008 208.60004840241 460.05931512187 343720.77612945 122519133.0846
44	65103975 25740 6994 8001 69.93 80 1008 399.41906111258 485.06 466396.80797373 216583769.54739
227	65129715 31036 6994 8001 69.93 80 1008 -0.71860162321868 9.1915824680276 4499.0081285481 26092.795158517
226	65160751 32699 6994 8001 69.93 80 1008 -1.0851230216211 0.71909857288581 4.5388926244023 139.41815913196
143	65193450 30989 6994 8001 69.93 80 1008 27.613138484984 27.769787903647 27930.359800156 773915.77073763
47	65224439 29983 6994 8001 69.93 80 1008 120.74656847829 373.74208654524 246598.13048554 66103526.595112
46	65254422 25353 6994 8001 69.93 80 1008 424.48439497652 478.66 471569.43349016 220852857.47521
229	65279775 30993 6994 8001 69.93 80 1008 2.9004952710272 12.805086812087 8686.8730593408 79061.2216032
228	65310768 31431 6994 8001 69.93 80 1008 -0.16756624207268 2.2246747363541 1156.3119394042 1614.2037805561
144	65342199 31022 6994 8001 69.93 80 1008 14.269498806746 25.822405614635 21342.272880269 463702.75954539
49	65373221 29998 6994 8001 69.93 80 1008 48.074732458941 171.50266941388 103635.60363916 12153915.486823
48	65403219 30002 6994 8001 69.93 80 1008 50.297439422718 210.70896140729 114812.35382424 15219393.797483
231	65433221 31061 6994 8001 69.93 80 1008 -0.70495025480805 8.9762432652032 4457.0258339193 25486.097018697
230	65464282 32717 6994 8001 69.93 80 1008 -0.92582136692236 0.68407377972193 0.3530152121602 130.38904997934
145	65496999 31007 6994 8001 69.93 80 1008 27.676340629882 27.763450834403 27940.756185707 774490.20283072
51	65528006 29981 6994 8001 69.93 80 1008 241.46040004359 469.95111603566 371881.3783171 141909618.41595
50	65557987 26802 6994 8001 69.93 80 1008 364.83071160494 481.86 450913.82928844 203046603.43213
233	65584789 31008 6994 8001 69.93 80 1008 3.5390519252488 12.711916145242 8797.2752948245 80860.108882421
232	65615797 31395 6994 8001 69.93 80 1008 -0.066032705900909 2.3419681858465 1182.8456398082 1678.6534106474
146	65647192 31015 6994 8001 69.93 80 1008 14.094856884858 25.902730681014 21309.859125378 462818.80245542
53	65678207 30003 6994 8001 69.93 80 1008 49.544745171425 184.13680397082 112626.77890772 14433530.591933
52	65708210 30022 6994 8001 69.93 80 1008 33.206819000369 185.4773835391 94597.687331831 10721682.553561
235	65738232 31036 6994 8001 69.93 80 1008 -0.65972805847221 9.1269596735292 4490.6516617915 26124.328264464
234	65769268 32687 6994 8001 69.93 80 1008 -1.1989226788867 0.70503476275299 1.176374812394 142.50136575255
147	65801955 31000 6994 8001 69.93 80 1008 27.713724731429 27.769903091296 27969.92041051 776107.77693533
55	65832955 30007 6994 8001 69.93 80 1008 279.98323571949 480.12703893579 401311.76942593 163473012.75495
54	65862962 28066 6994 8001 69.93 80 1008 323.16312830935 478.66 428024.52661189 184059649.58744
237	65891028 31026 6994 8001 69.93 80 1008 0.76977579245475 12.802219455977 8785.3542860503 80843.164768377
236	65922054 31420 6994 8001 69.93 80 1008 -0.45860582466482 2.4196801897235 1189.8859778522 1713.8048214176
148	65953474 31003 6994 8001 69.93 80 1008 13.93260573275 25.817692712542 21243.995883643 460113.56171279
57	65984477 30000 6994 8001 69.93 80 1008 55.153158590898 193.76250547776 121374.90122813 16586346.734574
56	66014477 29977 6994 8001 69.93 80 1008 30.168495759827 178.57306284371 90345.367114572 9824675.4131171
239	66044454 31045 6994 8001 69.93 80 1008 -0.39876145964514 8.8807093061747 4459.2264873724 25602.103284001
238	66075499 32725 6994 8001 69.93 80 1008 -1.1895274443667 0.66850706854993 -1.8007810728026 134.72144026463
149	66108224 30993 6994 8001 69.93 80 1008 27.702279965498 27.769555476132 27965.046286027 775837.35738177
59	66139217 29989 6994 8001 69.93 80 1008 244.21103989005 472.69443037254 374644.44128903 143950853.91788
58	66169206 26862 6994 8001 69.93 80 1008 366.74293608119 485.06 453357.52785325 205270718.70911
241	66196068 31058 6993 8001 69.92 80 1009 2.8560941112839 12.677713798362 8571.5355113068 78003.44456242
240	66227126 31640 6993 8001 69.92 80 1009 -0.18363149752396 2.2708169636005 1028.1887211195 1369.3674897803
150	66258766 31041 6993 8001 69.92 80 1009 16.044751221082 26.315982692145 22649.611661374 517627.85625946
61	66289807 30024 6994 8001 69.93 80 1008 37.814420690391 155.07453553342 88083.082060868 8928819.6300656
60	66319831 30019 6994 8001 69.93 80 1008 62.233727486372 242.28221545432 136679.79528472 21392728.069976
243	66349850 31127 6993 8001 69.92 80 1009 -0.80045308919355 8.9100056854185 4468.9275898308 25680.378686272
242	66380977 32716 6993 8001 69.92 80 1009 -0.87400546083458 0.67330884625356 1.0688069634757 132.63600279992
151	66413693 31028 6993 8001 69.92 80 1009 27.688430254775 27.760913234646 27979.881385551 775890.95113626
63	66444721 30039 6993 8001 69.92 80 1009 276.64122494546 480.94489249296 399919.55207319 162369935.44418
62	66474760 27975 6993 8001 69.92 80 1009 331.00042361591 481.86 434182.68343397 189011156.92293
245	66502735 31065 6993 8001 69.92 80 1009 2.5642592377626 12.643849011449 8686.5163676208 79820.523229918
244	66533800 31603 6993 8001 69.92 80 1009 -0.23946947544111 2.3458530393672 1048.9508084034 1406.230997753
152	66565403 31045 6993 8001 69.92 80 1009 15.984026368179 26.454787866605 22644.749270029 517580.32387424
65	66596448 30027 6993 8001 69.92 80 1009 39.255938623142 168.00112156712 95771.322876659 10689219.231251
64	66626475 30044 6993 8001 69.92 80 1009 44.930618931731 217.13832276955 115505.15635586 15727454.757192
247	66656519 31082 6993 8001 69.92 80 1009 -0.70599990477077 8.7841579343373 4491.0307069575 26050.081169313
246	66687601 32737 6993 8001 69.92 80 1009 -1.2326001340991 0.65246853219385 1.1202917842258 140.58429797907
153	66720338 31049 6993 8001 69.92 80 1009 27.711191622394 27.769938052931 27995.226632429 776742.20318542
67	66751387 30024 6993 8001 69.92 80 1009 315.3618807533 491.13918906965 425816.3008283 182507248.00276
66	66781411 29235 6993 8001 69.92 80 1009 289.27630092794 478.66 406309.30116769 166883637.138
249	66810646 30933 6993 8001 69.92 80 1009 0.973 12.13950235001 6394.0141861821 47883.678278943
248	66841579 31405 6993 8001 69.92 80 1009 -0.34460769995892 2.2145289454659 1254.9548169315 1850.6966152628
154	66872984 31062 6993 8001 69.92 80 1009 8.0339922230092 20.583904987741 13593.031838977 199240.07436708
69	66904046 30047 6993 8001 69.92 80 1009 144.28199435724 268.00254536747 215583.60762595 47389792.549984
68	66934093 22752 6993 8001 69.92 80 1009 29.8 66.119848601877 35967.279851229 1387708.3308597
251	66956845 31053 6993 8001 69.92 80 1009 1.8257347900733 12.959638209741 8643.4933876088 78973.80287979
250	66987898 31576 6993 8001 69.92 80 1009 -0.35387322709219 2.2810016956701 1046.2794395254 1397.7769827002
155	67019474 31049 6993 8001 69.92 80 1009 15.932472344877 26.375634435288 22577.655716478 514593.22794697
71	67050523 30043 6993 8001 69.92 80 1009 44.886589766949 177.66789420654 103972.40636637 12451242.651728
70	67080566 30043 6993 8001 69.92 80 1009 41.862454362192 210.16557168926 110788.5345351 14513748.940258
253	67110609 31045 6993 8001 69.92 80 1009 -0.84079016598784 8.8347069242955 4456.9058400694 25943.006283382
252	67141654 32743 6993 8001 69.92 80 1009 -1.1395373573759 0.65960976271029 -4.2053789503402 144.71099220136
156	67174397 31009 6993 8001 69.92 80 1009 27.704551884748 27.769881189145 27998.358087908 776915.9541818
73	67205406 30029 6993 8001 69.92 80 1009 279.37141135877 483.6640626648 402589.57137988 164491676.71729
72	67235435 28018 6993 8001 69.92 80 1009 332.98694506748 485.06 436533.65543635 191069617.95295
255	67263453 31032 6993 8001 69.92 80 1009 1.7702499540075 12.805190011983 8302.4222762453 74289.781823251
254	67294485 31767 6993 8001 69.92 80 1009 -0.37243480771032 2.2378703354608 884.58593713688 1084.2856107965
157	67326252 31064 6993 8001 69.92 80 1009 17.959924474186 26.788167703898 23800.403552299 568010.02487496
75	67357316 30014 6993 8001 69.92 80 1009 33.430958196347 137.20570602612 74101.855423393 6362348.3128472
74	67387330 30049 6993 8001 69.92 80 1009 75.216790438704 274.36832695667 160965.08436508 29312453.058938
257	67417379 31066 6993 8001 69.92 80 1009 -0.77341527416753 9.2187968500942 4471.3544859283 26218.403922384
256	67448445 32744 6993 8001 69.92 80 1009 -0.9076922457254 0.71967353127604 0.46484493465968 145.04591240257
158	67481189 31036 6993 8001 69.92 80 1009 27.695186823447 27.764866357009 27987.189167741 776296.2384023
77	67512225 30030 6993 8001 69.92 80 1009 312.17145752867 491.94832882336 424582.52080166 181613838.11068
76	67542255 29113 6993 8001 69.92 80 1009 297.14041005532 481.86 412631.64668623 171874261.8151
259	67571368 31064 6993 8001 69.92 80 1009 2.148097488736 12.899684691659 8347.0011975899 74909.613671088
258	67602432 31782 6993 8001 69.92 80 1009 -0.31494407579586 2.2216549434322 891.48597503715 1088.5367471281
159	67634214 31052 6993 8001 69.92 80 1009 17.955899431189 26.85152862314 23799.929980321 568101.61007298
79	67665266 30041 6993 8001 69.92 80 1009 28.817892761385 150.02358741376 79745.763400917 7580108.4995345
78	67695307 30034 6993 8001 69.92 80 1009 57.992664180281 249.25850446048 138697.93095951 22321588.091273
261	67725341 31048 6993 8001 69.92 80 1009 -0.84406674014305 9.0833167371152 4505.8739267203 26370.526214281
260	67756389 32754 6993 8001 69.92 80 1009 -1.0604875881111 0.69903035828425 2.0302104841708 146.11599240308
160	67789143 31042 6993 8001 69.92 80 1009 27.706673459538 27.769579657245 28001.402438757 777084.95820708
81	67820185 30015 6993 8001 69.92 80 1009 348.76930009 501.98704930529 446819.84695091 199915719.30735
80	67850200 30035 6993 8001 69.92 80 1009 255.50153260514 472.36875622399 379987.59265827 147155954.53934
263	67880235 31053 6993 8001 69.92 80 1009 0.71497010915754 12.875118561015 8276.7975468893 74309.271674778
262	67911288 31738 6993 8001 69.92 80 1009 -0.49502619931339 2.246822621429 887.90759814094 1111.8975574827
161	67943026 31045 6993 8001 69.92 80 1009 17.809885810461 26.672618861334 23720.66033649 564327.32838471
83	67974071 30048 6993 8001 69.92 80 1009 34.481399043109 159.67232617909 87368.333891995 8975651.2589032
82	68004119 30035 6993 8001 69.92 80 1009 54.937602558864 242.18465085969 133571.56204602 20761666.297894
265	68034154 31025 6993 8001 69.92 80 1009 -0.66348966189414 8.7484740864487 4506.0316635929 26223.940613239
264	68065179 32738 6993 8001 69.92 80 1009 -1.1313150727073 0.64711093904464 1.433310864174 143.80603400392
162	68097917 31054 6993 8001 69.92 80 1009 27.710243456634 27.769782340517 27999.741499125 776992.72956729
85	68128971 30035 6993 8001 69.92 80 1009 315.00269930641 494.68029277328 427265.61081886 183880983.61987
84	68159006 29153 6993 8001 69.92 80 1009 299.0875622405 485.06 414812.64099994 173684814.32531
267	68188159 31032 6993 8001 69.92 80 1009 1.5632287823838 13.008655649624 7829.8461224572 67809.455762752
266	68219191 31957 6993 8001 69.92 80 1009 -0.40981387619361 2.0383261385579 727.42854778016 820.27914952606
163	68251148 31028 6993 8001 69.92 80 1009 19.773385805758 27.039322306949 24782.270768013 613129.14069055
87	68282176 30036 6993 8001 69.92 80 1009 33.421857182044 117.40405725769 63491.301866951 4528350.2229751
86	68312212 30045 6993 8001 69.92 80 1009 89.604193509265 306.97337632682 187602.69251206 39251069.98558
269	68342257 31029 6993 8001 69.92 80 1009 -0.60919908043111 9.3710958667954 4474.6588652287 26199.181016588
268	68373286 32839 6993 8001 69.92 80 1009 -0.96758056069532 0.74293240096424 -0.78176381543571 146.7994645249
164	68406125 31047 6993 8001 69.92 80 1009 27.676843512926 27.766991235234 27981.810374156 775998.01342406
89	68437172 30039 6993 8001 69.92 80 1009 346.81224679507 503.05093566493 446329.09262157 199594138.06567
88	68467211 30034 6993 8001 69.92 80 1009 262.97522684113 477.74618484922 386496.95102024 151986315.15872
271	68497245 31093 6993 8001 69.92 80 1009 -0.71824796226423 8.7576559069491 4487.4508718082 25827.022863746
270	68528338 32711 6993 8001 69.92 80 1009 -1.0880246918532 0.65227254057341 3.343272400231 133.84748422379
165	68561049 31033 6993 8001 69.92 80 1009 27.667790049643 27.769619375021 27967.711227054 775216.48260914
91	68592082 30035 6993 8001 69.92 80 1009 90.884204047991 345.29481105892 213705.89107028 50812822.722372
90	68622117 25253 6993 8001 69.92 80 1009 410.69807791676 485.06 472384.61760841 221713874.2788
273	68647370 31049 6993 8001 69.92 80 1009 1.752796329024 13.172029593932 7938.2719454591 69189.926791673
272	68678419 31942 6993 8001 69.92 80 1009 -0.38377483373075 2.0858451283232 744.34667647046 833.377590203
166	68710361 31030 6993 8001 69.92 80 1009 19.752554261528 27.181675387498 24789.737223887 613643.34497011
93	68741391 30053 6993 8001 69.92 80 1009 26.704835248473 130.17746963726 65646.686095858 5165631.882503
92	68771444 30037 6993 8001 69.92 80 1009 72.4123774843 282.00324186279 164336.30691549 30801163.26376
275	68801481 30899 6993 8001 69.92 80 1009 -0.67159878036804 9.0591589753822 4565.9196955736 27035.700196499
274	68832380 32723 6993 8001 69.92 80 1009 -1.1911072582009 0.69354326909519 4.3260546408941 159.07273486907
167	68865103 31045 6993 8001 69.92 80 1009 27.703203597045 27.769999747257 28005.450260332 777309.58454324
95	68896148 30053 6993 8001 69.92 80 1009 377.56631024622 501.99606707674 463959.55896846 214638141.90435
94	68926201 30039 6993 8001 69.92 80 1009 221.61031809675 451.44553931465 351238.43899351 127027646.91556
277	68956240 31045 6993 8001 69.92 80 1009 1.7137685992147 13.22676987118 7852.2834674247 68054.235182698
276	68987285 31953 6993 8001 69.92 80 1009 -0.38586355319623 2.091374343172 737.04540989522 835.74412015447
168	69019238 31049 6993 8001 69.92 80 1009 19.657346180078 27.013641426944 24699.679190424 609126.39838998
97	69050287 30060 6993 8001 69.92 80 1009 30.070072496509 139.93789035388 72352.401561275 6220794.3615727
96	69080347 30045 6993 8001 69.92 80 1009 69.276170399501 274.68917547953 158665.79569796 28802831.320756
279	69110392 31063 6993 8001 69.92 80 1009 -0.82925696122563 9.0384264749954 4481.6458663974 25860.246845243
278	69141455 32718 6993 8001 69.92 80 1009 -1.1890517256688 0.69127506790814 -0.56799023392102 139.01242719592
169	69174173 31031 6993 8001 69.92 80 1009 27.677196726578 27.769901365148 27989.518365476 776425.65236799
99	69205204 30021 6993 8001 69.92 80 1009 349.0378448482 505.6673118712 448788.54028304 201789639.43619
98	69235225 30041 6993 8001 69.92 80 1009 265.27806817034 480.08459932846 388850.29136816 153793017.65915
281	69265266 31045 6993 8001 69.92 80 1009 1.1753216948377 13.325005808075 7333.0804429379 60894.813503551
280	69296311 32119 6993 8001 69.92 80 1009 -0.4733178231799 1.9190005434695 586.36612483857 614.53362742176
170	69328430 31056 6993 8001 69.92 80 1009 21.396791598112 27.242717601425 25601.782651153 652382.96915404
101	69359486 31034 6993 8001 69.92 80 1009 33.440285761043 96.00541197183 56911.336844894 3455287.9343303
100	69390520 31035 6993 8001 69.92 80 1009 105.15193594687 339.81912441001 216483.24604444 51412146.426263
283	69421555 31073 6993 8001 69.92 80 1009 -0.82380771572452 9.3751517195613 4467.3438500031 25894.652399674
282	69452628 32751 6993 8001 69.92 80 1009 -1.1556354390759 0.74208843164456 -0.84842202647586 139.20163500739
171	69485379 31058 6993 8001 69.92 80 1009 27.71318345094 27.769776221302 27996.294567514 776801.4500582
103	69516437 31058 6993 8001 69.92 80 1009 375.85561267933 505.3653004894 464552.98582993 215311275.88487
102	69547495 31042 6993 8001 69.92 80 1009 228.69512932661 456.64397165497 357719.81576613 131479469.80686
285	69578537 31030 6993 8001 69.92 80 1009 1.2185575409052 13.264954540022 7418.8803955225 61558.062225619
284	69609567 32039 6993 8001 69.92 80 1009 -0.46839036359323 1.9449152422528 597.80890161479 606.35189730784
172	69641606 31038 6993 8001 69.92 80 1009 21.435569148857 27.397844377566 25618.013507526 653342.7375394
105	69672644 31052 6993 8001 69.92 80 1009 26.695816154641 108.74416422996 55529.912292665 3538954.5688372
104	69703696 31055 6993 8001 69.92 80 1009 87.9853032631 315.07919458485 192229.3715541 41366486.627835
287	69734751 30818 6993 8001 69.92 80 1009 -0.8206408184348 9.4477369417968 4547.2144636845 27176.373320035
286	69765569 32738 6993 8001 69.92 80 1009 -1.2232886551644 0.75029986577384 -1.3355387671773 169.55673696055
173	69798307 31048 6993 8001 69.92 80 1009 27.741834826129 27.769978122843 28010.051203773 777564.91421058
107	69829355 31042 6993 8001 69.92 80 1009 406.46442126596 502.0001760151 476012.30491476 225203394.42931
106	69860397 31041 6993 8001 69.92 80 1009 187.5944649814 430.44886494269 320712.02068891 107331079.19536
289	69891438 31038 6993 8001 69.92 80 1009 0.973 13.113787402994 7374.1862955995 61082.120989303
288	69922476 32116 6993 8001 69.92 80 1009 -0.77633403264734 1.9478807928277 597.53526057105 616.19974198102
174	69954592 31048 6993 8001 69.92 80 1009 21.305635234521 27.267731625635 25505.014575548 647501.05466635
109	69985640 31063 6993 8001 69.92 80 1009 30.050469949408 118.55192988846 61096.238825574 4289866.6436849
108	70016703 31048 6993 8001 69.92 80 1009 84.814696440307 307.48528044863 186003.16717179 38864154.857683
291	70047751 30958 6993 8001 69.92 80 1009 -0.82282063695002 9.0134440048704 4535.0822974133 26786.578801732
290	70078709 32706 6993 8001 69.92 80 1009 -1.1171111674049 0.68713010932129 2.4030304466653 155.0411131331
175	70111415 31052 6993 8001 69.92 80 1009 27.718194295707 27.769951209422 28004.202050381 777240.2878123
111	70142467 31049 6993 8001 69.92 80 1009 377.75921226055 508.70843662435 467020.02524115 217620623.27078
110	70173516 31031 6993 8001 69.92 80 1009 231.37488446937 459.21634245073 360418.93694889 133391756.03772
293	70204547 30972 6993 8001 69.92 80 1009 0.973 12.30030192482 6881.4224310128 54121.556132167
292	70235519 31452 6993 8001 69.92 80 1009 -0.38735805703336 2.1560553514412 1173.1739719714 1625.8336588566
176	70266971 31046 6993 8001 69.92 80 1009 10.365324629283 22.090951787542 15710.519983941 258925.01685749
113	70298017 31054 6993 8001 69.92 80 1009 99.040796710281 232.86483541986 173936.15777849 31446856.808127
112	70329071 26734 6993 8001 69.92 80 1009 33 102.94649819686 54830.709233882 3484710.9389462
295	70355805 31131 6993 8001 69.92 80 1009 -0.82558771377037 9.1569358283004 4428.0269311147 25724.644817381
294	70386936 32791 6993 8001 69.92 80 1009 -0.98988899670616 0.71505579332118 -3.4291561361606 141.91166677744
177	70419727 31056 6993 8001 69.92 80 1009 27.626455307062 27.746175997219 27942.453173802 773816.88749401
115	70450783 31051 6993 8001 69.92 80 1009 117.30756665298 370.96040161919 243356.31368567 64483918.747942
114	70481834 26335 6993 8001 69.92 80 1009 425.94117907251 481.86 475096.14450269 223962053.19849
297	70508169 31032 6993 8001 69.92 80 1009 0.973 12.537417698151 7085.0619897449 56343.138853384
296	70539201 31367 6993 8001 69.92 80 1009 -0.22760481143518 2.2036152499201 1286.0169389095 1867.3405475694
178	70570568 31029 6993 8001 69.92 80 1009 9.159783558738 22.014030752284 15292.911442312 248498.580438
117	70601597 31019 6993 8001 69.92 80 1009 112.01989923839 245.44102973753 187422.2092391 36312141.118382
116	70632616 25987 6993 8001 69.92 80 1009 26.6 85.605232751914 41816.445499935 2082126.1694558
299	70658603 31075 6993 8001 69.92 80 1009 -0.65648814313021 8.7726299394059 4464.2596276864 25383.686292591
298	70689678 32765 6993 8001 69.92 80 1009 -1.135585976299 0.65292129605297 -0.31879843863187 128.55009697629
179	70722443 31030 6993 8001 69.92 80 1009 27.648809088759 27.769139397249 27971.947041828 775451.59498421
119	70753473 31051 6993 8001 69.92 80 1009 149.11517462341 402.44701966311 279238.19908128 83125131.854833
118	70784524 26381 6993 8001 69.92 80 1009 433.36781259358 478.66 473152.52590724 222050606.2999

