version 2
run SingleSmartCar-0-20201020-00:30:10-77772
attr configname SingleSmartCar
attr datetime 20201020-00:30:10
attr experiment SingleSmartCar
attr inifile omnetpp.ini
attr iterationvars ""
attr iterationvarsf ""
attr measurement ""
attr network Scenario
attr processid 77772
attr repetition 0
attr replication #0
attr resultdir results
attr runnumber 0
attr seedset 0
param *.trafficManager.percentageOfSmartCars 0.01
param *.playgroundSizeX 2500m
param *.playgroundSizeY 2500m
param *.playgroundSizeZ 50m
param *.annotations.draw true
param *.obstacles.debug false
param *.world.useTorus false
param *.world.use2D false
param *.traciScenarioManager.updateInterval 0.01s
param *.traciScenarioManager.host "\"localhost\""
param *.traciScenarioManager.port 9999
param *.traciScenarioManager.autoShutdown true
param *.traciScenarioManager.launchConfig "xmldoc(\"ring.launchd.xml\")"
param *.traciScenarioManager.configFile "\"ring.sumo.cfg\""
param *.traciScenarioManager.moduleType "\"smart_car=org.car2x.veins.nodes.Car normal_car=0 human_car=0\""
param *.traciScenarioManager.moduleName "\"smart_car=node normal_car=0 human_car=0\""
param *.traciScenarioManager.moduleDisplayString "\"\""
param *.connectionManager.sendDirect true
param *.connectionManager.maxInterfDist 2600m
param *.connectionManager.drawMaxIntfDist false
param *.**.nic.mac1609_4.useServiceChannel false
param *.**.nic.mac1609_4.txPower 20mW
param *.**.nic.mac1609_4.bitrate 6Mbps
param *.**.nic.phy80211p.minPowerLevel -110dBm
param *.**.nic.phy80211p.useNoiseFloor true
param *.**.nic.phy80211p.noiseFloor -98dBm
param *.**.nic.phy80211p.decider "xmldoc(\"config.xml\")"
param *.**.nic.phy80211p.analogueModels "xmldoc(\"config.xml\")"
param *.**.nic.phy80211p.usePropagationDelay true
param *.**.nic.phy80211p.antenna "xmldoc(\"antenna.xml\", \"/root/Antenna[@id='monopole']\")"
param *.node[*].nic.phy80211p.antennaOffsetY "0 m"
param *.node[*].nic.phy80211p.antennaOffsetZ "1.895 m"
param *.node[*].applType "\"PhantomTrafficAppLayer\""
param *.node[*].appl.headerLength "80 bit"
param *.node[*].appl.sendBeacons true
param *.node[*].appl.dataOnSch false
param *.node[*].appl.beaconInterval 1s
param *.node[*].veinsmobility.x 0
param *.node[*].veinsmobility.y 0
param *.node[*].veinsmobility.z 0
param *.node[*].veinsmobility.setHostSpeed false
param *.trafficManager.stopVehiclesAt 50s
param *.trafficManager.stopVehiclesDuration 5s
param *.trafficManager.numberOfVehicles 100
param *.trafficManager.percentageOfSmartCars 0.05
param *.trafficManager.percentageOfBrakingCars 0.1

vector 0 Scenario.node[0].veinsmobility posx ETV
vector 1 Scenario.node[0].veinsmobility posy ETV
vector 2 Scenario.node[0].appl driveChange ETV
vector 3 Scenario.node[0].veinsmobility speed ETV
vector 4 Scenario.node[0].veinsmobility acceleration ETV
vector 5 Scenario.node[0].veinsmobility co2emission ETV
2	2	0.01	0
2	3	0.02	0
2	4	0.03	0
2	5	0.04	0
2	6	0.05	0
2	7	0.06	0
2	8	0.07	0
2	9	0.08	0
2	10	0.09	0
2	11	0.1	0
2	12	0.11	0
2	13	0.12	0
2	14	0.13	0
2	15	0.14	0
2	16	0.15	0
2	17	0.16	0
2	18	0.17	0
2	19	0.18	0
2	20	0.19	0
2	21	0.2	0
2	22	0.21	0
2	23	0.22	0
2	24	0.23	0
2	25	0.24	0
2	26	0.25	0
2	27	0.26	0
2	28	0.27	0
2	29	0.28	0
2	30	0.29	0
2	31	0.3	0
2	32	0.31	0
2	33	0.32	0
2	34	0.33	0
2	35	0.34	0
2	36	0.35	0
2	37	0.36	0
2	38	0.37	0
2	39	0.38	0
2	40	0.39	0
2	41	0.4	0
2	42	0.41	0
2	43	0.42	0
2	44	0.43	0
2	45	0.44	0
2	46	0.45	0
2	47	0.46	0
2	48	0.47	0
2	49	0.48	0
2	50	0.49	0
2	51	0.5	0
2	52	0.51	0
2	53	0.52	0
2	54	0.53	0
2	55	0.54	0
2	56	0.55	0
2	57	0.56	0
2	58	0.57	0
2	59	0.58	0
2	60	0.59	0
2	61	0.6	0
2	62	0.61	0
2	72	0.62	0
2	73	0.63	0
2	74	0.64	0
2	75	0.65	0
2	76	0.66	0
2	77	0.67	0
2	78	0.68	0
2	79	0.69	0
2	80	0.7	0
2	81	0.71	0
2	82	0.72	0
2	83	0.73	0
2	84	0.74	0
2	85	0.75	0
2	86	0.76	0
2	87	0.77	0
2	88	0.78	0
2	89	0.79	0
2	90	0.8	0
2	91	0.81	0
2	92	0.82	0
2	93	0.83	0
2	94	0.84	0
2	95	0.85	0
2	96	0.86	0
2	97	0.87	0
2	98	0.88	0
2	99	0.89	0
2	100	0.9	0
2	101	0.91	0
2	102	0.92	0
2	103	0.93	0
2	104	0.94	0
2	105	0.95	0
2	106	0.96	0
2	107	0.97	0
2	108	0.98	0
2	109	0.99	0
2	110	1	0
2	111	1.01	0
2	112	1.02	0
2	113	1.03	0
2	114	1.04	0
2	115	1.05	0
2	116	1.06	0
2	117	1.07	0
2	118	1.08	0
2	119	1.09	0
2	120	1.1	0
2	121	1.11	0
2	122	1.12	0
2	123	1.13	0
2	124	1.14	0
2	125	1.15	0
2	126	1.16	0
2	127	1.17	0
2	128	1.18	0
2	129	1.19	0
2	130	1.2	0
2	131	1.21	0
2	132	1.22	0
2	133	1.23	0
2	134	1.24	0
2	135	1.25	0
2	136	1.26	0
2	137	1.27	0
2	138	1.28	0
2	139	1.29	0
2	140	1.3	0
2	141	1.31	0
2	142	1.32	0
2	143	1.33	0
2	144	1.34	0
2	145	1.35	0
2	146	1.36	0
2	147	1.37	0
2	148	1.38	0
2	149	1.39	0
2	150	1.4	0
2	151	1.41	0
2	152	1.42	0
2	153	1.43	0
2	154	1.44	0
2	155	1.45	0
2	156	1.46	0
2	157	1.47	0
2	158	1.48	0
2	159	1.49	0
2	160	1.5	0
2	161	1.51	0
2	162	1.52	0
2	163	1.53	0
2	164	1.54	0
2	165	1.55	0
2	166	1.56	0
2	167	1.57	0
2	168	1.58	0
2	169	1.59	0
2	170	1.6	0
2	171	1.61	0
2	181	1.62	0
2	182	1.63	0
2	183	1.64	0
2	184	1.65	0
2	185	1.66	0
2	186	1.67	0
2	187	1.68	0
2	188	1.69	0
2	189	1.7	0
2	190	1.71	0
2	191	1.72	0
2	192	1.73	0
2	193	1.74	0
2	194	1.75	0
2	195	1.76	0
2	196	1.77	0
2	197	1.78	0
2	198	1.79	0
2	199	1.8	0
2	200	1.81	0
2	201	1.82	0
2	202	1.83	0
2	203	1.84	0
2	204	1.85	0
2	205	1.86	0
2	206	1.87	0
2	207	1.88	0
2	208	1.89	0
2	209	1.9	0
2	210	1.91	0
2	211	1.92	0
2	212	1.93	0
2	213	1.94	0
2	214	1.95	0
2	215	1.96	0
2	216	1.97	0
2	217	1.98	0
2	218	1.99	0
2	219	2	0
2	220	2.01	0
2	221	2.02	0
2	222	2.03	0
2	223	2.04	0
2	224	2.05	0
2	225	2.06	0
2	226	2.07	0
2	227	2.08	0
2	228	2.09	0
2	229	2.1	0
2	230	2.11	0
2	231	2.12	0
2	232	2.13	0
2	233	2.14	0
2	234	2.15	0
2	235	2.16	0
2	236	2.17	0
2	237	2.18	0
2	238	2.19	0
2	239	2.2	0
2	240	2.21	0
2	241	2.22	0
2	242	2.23	0
2	243	2.24	0
2	244	2.25	0
2	245	2.26	0
2	246	2.27	0
2	247	2.28	0
2	248	2.29	0
2	249	2.3	0
2	250	2.31	0
2	251	2.32	0
2	252	2.33	0
2	253	2.34	0
2	254	2.35	0
2	255	2.36	0
2	256	2.37	0
2	257	2.38	0
2	258	2.39	0
2	259	2.4	0
2	260	2.41	0
2	261	2.42	0
2	262	2.43	0
2	263	2.44	0
2	264	2.45	0
2	265	2.46	0
2	266	2.47	0
2	267	2.48	0
2	268	2.49	0
2	269	2.5	0
2	270	2.51	0
2	271	2.52	0
2	272	2.53	0
2	273	2.54	0
2	274	2.55	0
2	275	2.56	0
2	276	2.57	0
2	277	2.58	0
2	278	2.59	0
2	279	2.6	0
2	280	2.61	0
2	290	2.62	0
2	291	2.63	0
2	292	2.64	0
2	293	2.65	0
2	294	2.66	0
2	295	2.67	0
2	296	2.68	0
2	297	2.69	0
2	298	2.7	0
2	299	2.71	0
2	300	2.72	0
2	301	2.73	0
2	302	2.74	0
2	303	2.75	0
2	304	2.76	0
2	305	2.77	0
2	306	2.78	0
2	307	2.79	0
2	308	2.8	0
2	309	2.81	0
2	310	2.82	0
2	311	2.83	0
2	312	2.84	0
2	313	2.85	0
2	314	2.86	0
2	315	2.87	0
2	316	2.88	0
2	317	2.89	0
2	318	2.9	0
2	319	2.91	0
2	320	2.92	0
2	321	2.93	0
2	322	2.94	0
2	323	2.95	0
2	324	2.96	0
2	325	2.97	0
2	326	2.98	0
2	327	2.99	0
2	328	3	0
2	329	3.01	0
2	330	3.02	0
2	331	3.03	0
2	332	3.04	0
2	333	3.05	0
2	334	3.06	0
2	335	3.07	0
2	336	3.08	0
2	337	3.09	0
2	338	3.1	0
2	339	3.11	0
2	340	3.12	0
2	341	3.13	0
2	342	3.14	0
2	343	3.15	0
2	344	3.16	0
2	345	3.17	0
2	346	3.18	0
2	347	3.19	0
2	348	3.2	0
2	349	3.21	0
2	350	3.22	0
2	351	3.23	0
2	352	3.24	0
2	353	3.25	0
2	354	3.26	0
2	355	3.27	0
2	356	3.28	0
2	357	3.29	0
2	358	3.3	0
2	359	3.31	0
2	360	3.32	0
2	361	3.33	0
2	362	3.34	0
2	363	3.35	0
2	364	3.36	0
2	365	3.37	0
2	366	3.38	0
2	367	3.39	0
2	368	3.4	0
2	369	3.41	0
2	370	3.42	0
2	371	3.43	0
2	372	3.44	0
2	373	3.45	0
2	374	3.46	0
2	375	3.47	0
2	376	3.48	0
2	377	3.49	0
2	378	3.5	0
2	379	3.51	0
2	380	3.52	0
2	381	3.53	0
2	382	3.54	0
2	383	3.55	0
2	384	3.56	0
2	385	3.57	0
2	386	3.58	0
2	387	3.59	0
2	388	3.6	0
2	389	3.61	0
2	399	3.62	0
2	400	3.63	0
2	401	3.64	0
2	402	3.65	0
2	403	3.66	0
2	404	3.67	0
2	405	3.68	0
2	406	3.69	0
2	407	3.7	0
2	408	3.71	0
2	409	3.72	0
2	410	3.73	0
2	411	3.74	0
2	412	3.75	0
2	413	3.76	0
2	414	3.77	0
2	415	3.78	0
2	416	3.79	0
2	417	3.8	0
2	418	3.81	0
2	419	3.82	0
2	420	3.83	0
2	421	3.84	0
2	422	3.85	0
2	423	3.86	0
2	424	3.87	0
2	425	3.88	0
2	426	3.89	0
2	427	3.9	0
2	428	3.91	0
2	429	3.92	0
2	430	3.93	0
2	431	3.94	0
2	432	3.95	0
2	433	3.96	0
2	434	3.97	0
2	435	3.98	0
2	436	3.99	0
2	437	4	0
2	438	4.01	0
2	439	4.02	0
2	440	4.03	0
2	441	4.04	0
2	442	4.05	0
2	443	4.06	0
2	444	4.07	0
2	445	4.08	0
2	446	4.09	0
2	447	4.1	0
2	448	4.11	0
2	449	4.12	0
2	450	4.13	0
2	451	4.14	0
2	452	4.15	0
2	453	4.16	0
2	454	4.17	0
2	455	4.18	0
2	456	4.19	0
2	457	4.2	0
2	458	4.21	0
2	459	4.22	0
2	460	4.23	0
2	461	4.24	0
2	462	4.25	0
2	463	4.26	0
2	464	4.27	0
2	465	4.28	0
2	466	4.29	0
2	467	4.3	0
2	468	4.31	0
2	469	4.32	0
2	470	4.33	0
2	471	4.34	0
2	472	4.35	0
2	473	4.36	0
2	474	4.37	0
2	475	4.38	0
2	476	4.39	0
2	477	4.4	0
2	478	4.41	0
2	479	4.42	0
2	480	4.43	0
2	481	4.44	0
2	482	4.45	0
2	483	4.46	0
2	484	4.47	0
2	485	4.48	0
2	486	4.49	0
2	487	4.5	0
2	488	4.51	0
2	489	4.52	0
2	490	4.53	0
2	491	4.54	0
2	492	4.55	0
2	493	4.56	0
2	494	4.57	0
2	495	4.58	0
2	496	4.59	0
2	497	4.6	0
2	498	4.61	0
2	508	4.62	0
2	509	4.63	0
2	510	4.64	0
2	511	4.65	0
2	512	4.66	0
2	513	4.67	0
2	514	4.68	0
2	515	4.69	0
2	516	4.7	0
2	517	4.71	0
2	518	4.72	0
2	519	4.73	0
2	520	4.74	0
2	521	4.75	0
2	522	4.76	0
2	523	4.77	0
2	524	4.78	0
2	525	4.79	0
2	526	4.8	0
2	527	4.81	0
2	528	4.82	0
2	529	4.83	0
2	530	4.84	0
2	531	4.85	0
2	532	4.86	0
2	533	4.87	0
2	534	4.88	0
2	535	4.89	0
2	536	4.9	0
2	537	4.91	0
2	538	4.92	0
2	539	4.93	0
2	540	4.94	0
2	541	4.95	0
2	542	4.96	0
2	543	4.97	0
2	544	4.98	0
2	545	4.99	0
2	546	5	0
2	547	5.01	0
2	548	5.02	0
2	549	5.03	0
2	550	5.04	0
2	551	5.05	0
2	552	5.06	0
2	553	5.07	0
2	554	5.08	0
2	555	5.09	0
2	556	5.1	0
2	557	5.11	0
2	558	5.12	0
2	559	5.13	0
2	560	5.14	0
2	561	5.15	0
2	562	5.16	0
2	563	5.17	0
2	564	5.18	0
2	565	5.19	0
2	566	5.2	0
2	567	5.21	0
2	568	5.22	0
2	569	5.23	0
2	570	5.24	0
2	571	5.25	0
2	572	5.26	0
2	573	5.27	0
2	574	5.28	0
2	575	5.29	0
2	576	5.3	0
2	577	5.31	0
2	578	5.32	0
2	579	5.33	0
2	580	5.34	0
2	581	5.35	0
2	582	5.36	0
2	583	5.37	0
2	584	5.38	0
2	585	5.39	0
2	586	5.4	0
2	587	5.41	0
2	588	5.42	0
2	589	5.43	0
2	590	5.44	0
2	591	5.45	0
2	592	5.46	0
2	593	5.47	0
2	594	5.48	0
2	595	5.49	0
2	596	5.5	0
2	597	5.51	0
2	598	5.52	0
2	599	5.53	0
2	600	5.54	0
2	601	5.55	0
2	602	5.56	0
2	603	5.57	0
2	604	5.58	0
2	605	5.59	0
2	606	5.6	0
2	607	5.61	0
2	617	5.62	0
2	618	5.63	0
2	619	5.64	0
2	620	5.65	0
2	621	5.66	0
2	622	5.67	0
2	623	5.68	0
2	624	5.69	0
2	625	5.7	0
2	626	5.71	0
2	627	5.72	0
2	628	5.73	0
2	629	5.74	0
2	630	5.75	0
2	631	5.76	0
2	632	5.77	0
2	633	5.78	0
2	634	5.79	0
2	635	5.8	0
2	636	5.81	0
2	637	5.82	0
2	638	5.83	0
2	639	5.84	0
2	640	5.85	0
2	641	5.86	0
2	642	5.87	0
2	643	5.88	0
2	644	5.89	0
2	645	5.9	0
2	646	5.91	0
2	647	5.92	0
2	648	5.93	0
2	649	5.94	0
2	650	5.95	0
2	651	5.96	0
2	652	5.97	0
2	653	5.98	0
2	654	5.99	0
2	655	6	0
2	656	6.01	0
2	657	6.02	0
2	658	6.03	0
2	659	6.04	0
2	660	6.05	0
2	661	6.06	0
2	662	6.07	0
2	663	6.08	0
2	664	6.09	0
2	665	6.1	0
2	666	6.11	0
2	667	6.12	0
2	668	6.13	0
2	669	6.14	0
2	670	6.15	0
2	671	6.16	0
2	672	6.17	0
2	673	6.18	0
2	674	6.19	0
2	675	6.2	0
2	676	6.21	0
2	677	6.22	0
2	678	6.23	0
2	679	6.24	0
2	680	6.25	0
2	681	6.26	0
2	682	6.27	0
2	683	6.28	0
2	684	6.29	0
2	685	6.3	0
2	686	6.31	0
2	687	6.32	0
2	688	6.33	0
2	689	6.34	0
2	690	6.35	0
2	691	6.36	0
2	692	6.37	0
2	693	6.38	0
2	694	6.39	0
2	695	6.4	0
2	696	6.41	0
2	697	6.42	0
2	698	6.43	0
2	699	6.44	0
2	700	6.45	0
2	701	6.46	0
2	702	6.47	0
2	703	6.48	0
2	704	6.49	0
2	705	6.5	0
2	706	6.51	0
2	707	6.52	0
2	708	6.53	0
2	709	6.54	0
2	710	6.55	0
2	711	6.56	0
2	712	6.57	0
2	713	6.58	0
2	714	6.59	0
2	715	6.6	0
2	716	6.61	0
2	726	6.62	0
2	727	6.63	0
2	728	6.64	0
2	729	6.65	0
2	730	6.66	0
2	731	6.67	0
2	732	6.68	0
2	733	6.69	0
2	734	6.7	0
2	735	6.71	0
2	736	6.72	0
2	737	6.73	0
2	738	6.74	0
2	739	6.75	0
2	740	6.76	0
2	741	6.77	0
2	742	6.78	0
2	743	6.79	0
2	744	6.8	0
2	745	6.81	0
2	746	6.82	0
2	747	6.83	0
2	748	6.84	0
2	749	6.85	0
2	750	6.86	0
2	751	6.87	0
2	752	6.88	0
2	753	6.89	0
2	754	6.9	0
2	755	6.91	0
2	756	6.92	0
2	757	6.93	0
2	758	6.94	0
2	759	6.95	0
2	760	6.96	0
2	761	6.97	0
2	762	6.98	0
2	763	6.99	0
2	764	7	0
2	765	7.01	0
2	766	7.02	0
2	767	7.03	0
2	768	7.04	0
2	769	7.05	0
2	770	7.06	0
2	771	7.07	0
2	772	7.08	0
2	773	7.09	0
2	774	7.1	0
2	775	7.11	0
2	776	7.12	0
2	777	7.13	0
2	778	7.14	0
2	779	7.15	0
2	780	7.16	0
2	781	7.17	0
2	782	7.18	0
2	783	7.19	0
2	784	7.2	0
2	785	7.21	0
2	786	7.22	0
2	787	7.23	0
2	788	7.24	0
2	789	7.25	0
2	790	7.26	0
2	791	7.27	0
2	792	7.28	0
2	793	7.29	0
2	794	7.3	0
2	795	7.31	0
2	796	7.32	0
2	797	7.33	0
2	798	7.34	0
2	799	7.35	0
2	800	7.36	0
2	801	7.37	0
2	802	7.38	0
2	803	7.39	0
2	804	7.4	0
2	805	7.41	0
2	806	7.42	0
2	807	7.43	0
2	808	7.44	0
2	809	7.45	0
2	810	7.46	0
2	811	7.47	0
2	812	7.48	0
2	813	7.49	0
2	814	7.5	0
2	815	7.51	0
2	816	7.52	0
2	817	7.53	0
2	818	7.54	0
2	819	7.55	0
2	820	7.56	0
2	821	7.57	0
2	822	7.58	0
2	823	7.59	0
2	824	7.6	0
2	825	7.61	0
2	835	7.62	0
2	836	7.63	0
2	837	7.64	0
2	838	7.65	0
2	839	7.66	0
2	840	7.67	0
2	841	7.68	0
2	842	7.69	0
2	843	7.7	0
2	844	7.71	0
2	845	7.72	0
2	846	7.73	0
2	847	7.74	0
2	848	7.75	0
2	849	7.76	0
2	850	7.77	0
2	851	7.78	0
2	852	7.79	0
2	853	7.8	0
2	854	7.81	0
2	855	7.82	0
2	856	7.83	0
2	857	7.84	0
2	858	7.85	0
2	859	7.86	0
2	860	7.87	0
2	861	7.88	0
2	862	7.89	0
2	863	7.9	0
2	864	7.91	0
2	865	7.92	0
2	866	7.93	0
2	867	7.94	0
2	868	7.95	0
2	869	7.96	0
2	870	7.97	0
2	871	7.98	0
2	872	7.99	0
2	873	8	0
2	874	8.01	0
2	875	8.02	0
2	876	8.03	0
2	877	8.04	0
2	878	8.05	0
2	879	8.06	0
2	880	8.07	0
2	881	8.08	0
2	882	8.09	0
2	883	8.1	0
2	884	8.11	0
2	885	8.12	0
2	886	8.13	0
2	887	8.14	0
2	888	8.15	0
2	889	8.16	0
2	890	8.17	0
2	891	8.18	0
2	892	8.19	0
2	893	8.2	0
2	894	8.21	0
2	895	8.22	0
2	896	8.23	0
2	897	8.24	0
2	898	8.25	0
2	899	8.26	0
2	900	8.27	0
2	901	8.28	0
2	902	8.29	0
2	903	8.3	0
2	904	8.31	0
2	905	8.32	0
2	906	8.33	0
2	907	8.34	0
2	908	8.35	0
2	909	8.36	0
2	910	8.37	0
2	911	8.38	0
2	912	8.39	0
2	913	8.4	0
2	914	8.41	0
2	915	8.42	0
2	916	8.43	0
2	917	8.44	0
2	918	8.45	0
2	919	8.46	0
2	920	8.47	0
2	921	8.48	0
2	922	8.49	0
2	923	8.5	0
2	924	8.51	0
2	925	8.52	0
2	926	8.53	0
2	927	8.54	0
2	928	8.55	0
2	929	8.56	0
2	930	8.57	0
2	931	8.58	0
2	932	8.59	0
2	933	8.6	0
2	934	8.61	0
2	944	8.62	0
2	945	8.63	0
2	946	8.64	0
2	947	8.65	0
2	948	8.66	0
2	949	8.67	0
2	950	8.68	0
2	951	8.69	0
2	952	8.7	0
2	953	8.71	0
2	954	8.72	0
2	955	8.73	0
2	956	8.74	0
2	957	8.75	0
2	958	8.76	0
2	959	8.77	0
2	960	8.78	0
2	961	8.79	0
2	962	8.8	0
2	963	8.81	0
2	964	8.82	0
2	965	8.83	0
2	966	8.84	0
2	967	8.85	0
2	968	8.86	0
2	969	8.87	0
2	970	8.88	0
2	971	8.89	0
2	972	8.9	0
2	973	8.91	0
2	974	8.92	0
2	975	8.93	0
2	976	8.94	0
2	977	8.95	0
2	978	8.96	0
2	979	8.97	0
2	980	8.98	0
2	981	8.99	0
2	982	9	0
2	983	9.01	0
2	984	9.02	0
2	985	9.03	0
2	986	9.04	0
2	987	9.05	0
2	988	9.06	0
2	989	9.07	0
2	990	9.08	0
2	991	9.09	0
2	992	9.1	0
2	993	9.11	0
2	994	9.12	0
2	995	9.13	0
2	996	9.14	0
2	997	9.15	0
2	998	9.16	0
2	999	9.17	0
2	1000	9.18	0
2	1001	9.19	0
2	1002	9.2	0
2	1003	9.21	0
2	1004	9.22	0
2	1005	9.23	0
2	1006	9.24	0
2	1007	9.25	0
2	1008	9.26	0
2	1009	9.27	0
2	1010	9.28	0
2	1011	9.29	0
2	1012	9.3	0
2	1013	9.31	0
2	1014	9.32	0
2	1015	9.33	0
2	1016	9.34	0
2	1017	9.35	0
2	1018	9.36	0
2	1019	9.37	0
2	1020	9.38	0
2	1021	9.39	0
2	1022	9.4	0
2	1023	9.41	0
2	1024	9.42	0
2	1025	9.43	0
2	1026	9.44	0
2	1027	9.45	0
2	1028	9.46	0
2	1029	9.47	0
2	1030	9.48	0
2	1031	9.49	0
2	1032	9.5	0
2	1033	9.51	0
2	1034	9.52	0
2	1035	9.53	0
2	1036	9.54	0
2	1037	9.55	0
2	1038	9.56	0
2	1039	9.57	0
2	1040	9.58	0
2	1041	9.59	0
2	1042	9.6	0
2	1043	9.61	0
2	1053	9.62	0
2	1054	9.63	0
2	1055	9.64	0
2	1056	9.65	0
2	1057	9.66	0
2	1058	9.67	0
2	1059	9.68	0
2	1060	9.69	0
2	1061	9.7	0
2	1062	9.71	0
2	1063	9.72	0
2	1064	9.73	0
2	1065	9.74	0
2	1066	9.75	0
2	1067	9.76	0
2	1068	9.77	0
2	1069	9.78	0
2	1070	9.79	0
2	1071	9.8	0
2	1072	9.81	0
2	1073	9.82	0
2	1074	9.83	0
2	1075	9.84	0
2	1076	9.85	0
2	1077	9.86	0
2	1078	9.87	0
2	1079	9.88	0
2	1080	9.89	0
2	1081	9.9	0
2	1082	9.91	0
2	1083	9.92	0
2	1084	9.93	0
2	1085	9.94	0
2	1086	9.95	0
2	1087	9.96	0
2	1088	9.97	0
2	1089	9.98	0
2	1090	9.99	0
2	1091	10	0
2	1092	10.01	0
2	1093	10.02	0
2	1094	10.03	0
2	1095	10.04	0
2	1096	10.05	0
2	1097	10.06	0
2	1098	10.07	0
2	1099	10.08	0
2	1100	10.09	0
2	1101	10.1	0
2	1102	10.11	0
2	1103	10.12	0
2	1104	10.13	0
2	1105	10.14	0
2	1106	10.15	0
2	1107	10.16	0
2	1108	10.17	0
2	1109	10.18	0
2	1110	10.19	0
2	1111	10.2	0
2	1112	10.21	0
2	1113	10.22	0
2	1114	10.23	0
2	1115	10.24	0
2	1116	10.25	0
2	1117	10.26	0
2	1118	10.27	0
2	1119	10.28	0
2	1120	10.29	0
2	1121	10.3	0
2	1122	10.31	0
2	1123	10.32	0
2	1124	10.33	0
2	1125	10.34	0
2	1126	10.35	0
2	1127	10.36	0
2	1128	10.37	0
2	1129	10.38	0
2	1130	10.39	0
2	1131	10.4	0
2	1132	10.41	0
2	1133	10.42	0
2	1134	10.43	0
2	1135	10.44	0
2	1136	10.45	0
2	1137	10.46	0
2	1138	10.47	0
2	1139	10.48	0
2	1140	10.49	0
2	1141	10.5	0
2	1142	10.51	0
2	1143	10.52	0
2	1144	10.53	0
2	1145	10.54	0
2	1146	10.55	0
2	1147	10.56	0
2	1148	10.57	0
2	1149	10.58	0
2	1150	10.59	0
2	1151	10.6	0
2	1152	10.61	0
2	1162	10.62	0
2	1163	10.63	0
2	1164	10.64	0
2	1165	10.65	0
2	1166	10.66	0
2	1167	10.67	0
2	1168	10.68	0
2	1169	10.69	0
2	1170	10.7	0
2	1171	10.71	0
2	1172	10.72	0
2	1173	10.73	0
2	1174	10.74	0
2	1175	10.75	0
2	1176	10.76	0
2	1177	10.77	0
2	1178	10.78	0
2	1179	10.79	0
2	1180	10.8	0
2	1181	10.81	0
2	1182	10.82	0
2	1183	10.83	0
2	1184	10.84	0
2	1185	10.85	0
2	1186	10.86	0
2	1187	10.87	0
2	1188	10.88	0
2	1189	10.89	0
2	1190	10.9	0
2	1191	10.91	0
2	1192	10.92	0
2	1193	10.93	0
2	1194	10.94	0
2	1195	10.95	0
2	1196	10.96	0
2	1197	10.97	0
2	1198	10.98	0
2	1199	10.99	0
2	1200	11	0
2	1201	11.01	0
2	1202	11.02	0
2	1203	11.03	0
2	1204	11.04	0
2	1205	11.05	0
2	1206	11.06	0
2	1207	11.07	0
2	1208	11.08	0
2	1209	11.09	0
2	1210	11.1	0
2	1211	11.11	0
2	1212	11.12	0
2	1213	11.13	0
2	1214	11.14	0
2	1215	11.15	0
2	1216	11.16	0
2	1217	11.17	0
2	1218	11.18	0
2	1219	11.19	0
2	1220	11.2	0
2	1221	11.21	0
2	1222	11.22	0
2	1223	11.23	0
2	1224	11.24	0
2	1225	11.25	0
2	1226	11.26	0
2	1227	11.27	0
2	1228	11.28	0
2	1229	11.29	0
2	1230	11.3	0
2	1231	11.31	0
2	1232	11.32	0
2	1233	11.33	0
2	1234	11.34	0
2	1235	11.35	0
2	1236	11.36	0
2	1237	11.37	0
2	1238	11.38	0
2	1239	11.39	0
2	1240	11.4	0
2	1241	11.41	0
2	1242	11.42	0
2	1243	11.43	0
2	1244	11.44	0
2	1245	11.45	0
2	1246	11.46	0
2	1247	11.47	0
2	1248	11.48	0
2	1249	11.49	0
2	1250	11.5	0
2	1251	11.51	0
2	1252	11.52	0
2	1253	11.53	0
2	1254	11.54	0
2	1255	11.55	0
2	1256	11.56	0
2	1257	11.57	0
2	1258	11.58	0
2	1259	11.59	0
2	1260	11.6	0
2	1261	11.61	0
2	1271	11.62	0
2	1272	11.63	0
2	1273	11.64	0
2	1274	11.65	0
2	1275	11.66	0
2	1276	11.67	0
2	1277	11.68	0
2	1278	11.69	0
2	1279	11.7	0
2	1280	11.71	0
2	1281	11.72	0
2	1282	11.73	0
2	1283	11.74	0
2	1284	11.75	0
2	1285	11.76	0
2	1286	11.77	0
2	1287	11.78	0
2	1288	11.79	0
2	1289	11.8	0
2	1290	11.81	0
2	1291	11.82	0
2	1292	11.83	0
2	1293	11.84	0
2	1294	11.85	0
2	1295	11.86	0
2	1296	11.87	0
2	1297	11.88	0
2	1298	11.89	0
2	1299	11.9	0
2	1300	11.91	0
2	1301	11.92	0
2	1302	11.93	0
2	1303	11.94	0
2	1304	11.95	0
2	1305	11.96	0
2	1306	11.97	0
2	1307	11.98	0
2	1308	11.99	0
2	1309	12	0
2	1310	12.01	0
2	1311	12.02	0
2	1312	12.03	0
2	1313	12.04	0
2	1314	12.05	0
2	1315	12.06	0
2	1316	12.07	0
2	1317	12.08	0
2	1318	12.09	0
2	1319	12.1	0
2	1320	12.11	0
2	1321	12.12	0
2	1322	12.13	0
2	1323	12.14	0
2	1324	12.15	0
2	1325	12.16	0
2	1326	12.17	0
2	1327	12.18	0
2	1328	12.19	0
2	1329	12.2	0
2	1330	12.21	0
2	1331	12.22	0
2	1332	12.23	0
2	1333	12.24	0
2	1334	12.25	0
2	1335	12.26	0
2	1336	12.27	0
2	1337	12.28	0
2	1338	12.29	0
2	1339	12.3	0
2	1340	12.31	0
2	1341	12.32	0
2	1342	12.33	0
2	1343	12.34	0
2	1344	12.35	0
2	1345	12.36	0
2	1346	12.37	0
2	1347	12.38	0
2	1348	12.39	0
2	1349	12.4	0
2	1350	12.41	0
2	1351	12.42	0
2	1352	12.43	0
2	1353	12.44	0
2	1354	12.45	0
2	1355	12.46	0
2	1356	12.47	0
2	1357	12.48	0
2	1358	12.49	0
2	1359	12.5	0
2	1360	12.51	0
2	1361	12.52	0
2	1362	12.53	0
2	1363	12.54	0
2	1364	12.55	0
2	1365	12.56	0
2	1366	12.57	0
2	1367	12.58	0
2	1368	12.59	0
2	1369	12.6	0
2	1370	12.61	0
2	1380	12.62	0
2	1381	12.63	0
2	1382	12.64	0
2	1383	12.65	0
2	1384	12.66	0
2	1385	12.67	0
2	1386	12.68	0
2	1387	12.69	0
2	1388	12.7	0
2	1389	12.71	0
2	1390	12.72	0
2	1391	12.73	0
2	1392	12.74	0
2	1393	12.75	0
2	1394	12.76	0
2	1395	12.77	0
2	1396	12.78	0
2	1397	12.79	0
2	1398	12.8	0
2	1399	12.81	0
2	1400	12.82	0
2	1401	12.83	0
2	1402	12.84	0
2	1403	12.85	0
2	1404	12.86	0
2	1405	12.87	0
2	1406	12.88	0
2	1407	12.89	0
2	1408	12.9	0
2	1409	12.91	0
2	1410	12.92	0
2	1411	12.93	0
2	1412	12.94	0
2	1413	12.95	0
2	1414	12.96	0
2	1415	12.97	0
2	1416	12.98	0
2	1417	12.99	0
2	1418	13	0
2	1419	13.01	0
2	1420	13.02	0
2	1421	13.03	0
2	1422	13.04	0
2	1423	13.05	0
2	1424	13.06	0
2	1425	13.07	0
2	1426	13.08	0
2	1427	13.09	0
2	1428	13.1	0
2	1429	13.11	0
2	1430	13.12	0
2	1431	13.13	0
2	1432	13.14	0
2	1433	13.15	0
2	1434	13.16	0
2	1435	13.17	0
2	1436	13.18	0
2	1437	13.19	0
2	1438	13.2	0
2	1439	13.21	0
2	1440	13.22	0
2	1441	13.23	0
2	1442	13.24	0
2	1443	13.25	0
2	1444	13.26	0
2	1445	13.27	0
2	1446	13.28	0
2	1447	13.29	0
2	1448	13.3	0
2	1449	13.31	0
2	1450	13.32	0
2	1451	13.33	0
2	1452	13.34	0
2	1453	13.35	0
2	1454	13.36	0
2	1455	13.37	0
2	1456	13.38	0
2	1457	13.39	0
2	1458	13.4	0
2	1459	13.41	0
2	1460	13.42	0
2	1461	13.43	0
2	1462	13.44	0
2	1463	13.45	0
2	1464	13.46	0
2	1465	13.47	0
2	1466	13.48	0
2	1467	13.49	0
2	1468	13.5	0
2	1469	13.51	0
2	1470	13.52	0
2	1471	13.53	0
2	1472	13.54	0
2	1473	13.55	0
2	1474	13.56	0
2	1475	13.57	0
2	1476	13.58	0
2	1477	13.59	0
2	1478	13.6	0
2	1479	13.61	0
2	1489	13.62	0
2	1490	13.63	0
2	1491	13.64	0
2	1492	13.65	0
2	1493	13.66	0
2	1494	13.67	0
2	1495	13.68	0
2	1496	13.69	0
2	1497	13.7	0
2	1498	13.71	0
2	1499	13.72	0
2	1500	13.73	0
2	1501	13.74	0
2	1502	13.75	0
2	1503	13.76	0
2	1504	13.77	0
2	1505	13.78	0
2	1506	13.79	0
2	1507	13.8	0
2	1508	13.81	0
2	1509	13.82	0
2	1510	13.83	0
2	1511	13.84	0
2	1512	13.85	0
2	1513	13.86	0
2	1514	13.87	0
2	1515	13.88	0
2	1516	13.89	0
2	1517	13.9	0
2	1518	13.91	0
2	1519	13.92	0
2	1520	13.93	0
2	1521	13.94	0
2	1522	13.95	0
2	1523	13.96	0
2	1524	13.97	0
2	1525	13.98	0
2	1526	13.99	0
2	1527	14	0
2	1528	14.01	0
2	1529	14.02	0
2	1530	14.03	0
2	1531	14.04	0
2	1532	14.05	0
2	1533	14.06	0
2	1534	14.07	0
2	1535	14.08	0
2	1536	14.09	0
2	1537	14.1	0
2	1538	14.11	0
2	1539	14.12	0
2	1540	14.13	0
2	1541	14.14	0
2	1542	14.15	0
2	1543	14.16	0
2	1544	14.17	0
2	1545	14.18	0
2	1546	14.19	0
2	1547	14.2	0
2	1548	14.21	0
2	1549	14.22	0
2	1550	14.23	0
2	1551	14.24	0
2	1552	14.25	0
2	1553	14.26	0
2	1554	14.27	0
2	1555	14.28	0
2	1556	14.29	0
2	1557	14.3	0
2	1558	14.31	0
2	1559	14.32	0
2	1560	14.33	0
2	1561	14.34	0
2	1562	14.35	0
2	1563	14.36	0
2	1564	14.37	0
2	1565	14.38	0
2	1566	14.39	0
2	1567	14.4	0
2	1568	14.41	0
2	1569	14.42	0
2	1570	14.43	0
2	1571	14.44	0
2	1572	14.45	0
2	1573	14.46	0
2	1574	14.47	0
2	1575	14.48	0
2	1576	14.49	0
2	1577	14.5	0
2	1578	14.51	0
2	1579	14.52	0
2	1580	14.53	0
2	1581	14.54	0
2	1582	14.55	0
2	1583	14.56	0
2	1584	14.57	0
2	1585	14.58	0
2	1586	14.59	0
2	1587	14.6	0
2	1588	14.61	0
2	1598	14.62	0
2	1599	14.63	0
2	1600	14.64	0
2	1601	14.65	0
2	1602	14.66	0
2	1603	14.67	0
2	1604	14.68	0
2	1605	14.69	0
2	1606	14.7	0
2	1607	14.71	0
2	1608	14.72	0
2	1609	14.73	0
2	1610	14.74	0
2	1611	14.75	0
2	1612	14.76	0
2	1613	14.77	0
2	1614	14.78	0
2	1615	14.79	0
2	1616	14.8	0
2	1617	14.81	0
2	1618	14.82	0
2	1619	14.83	0
2	1620	14.84	0
2	1621	14.85	0
2	1622	14.86	0
2	1623	14.87	0
2	1624	14.88	0
2	1625	14.89	0
2	1626	14.9	0
2	1627	14.91	0
2	1628	14.92	0
2	1629	14.93	0
2	1630	14.94	0
2	1631	14.95	0
2	1632	14.96	0
2	1633	14.97	0
2	1634	14.98	0
2	1635	14.99	0
2	1636	15	0
2	1637	15.01	0
2	1638	15.02	0
2	1639	15.03	0
2	1640	15.04	0
2	1641	15.05	0
2	1642	15.06	0
2	1643	15.07	0
2	1644	15.08	0
2	1645	15.09	0
2	1646	15.1	0
2	1647	15.11	0
2	1648	15.12	0
2	1649	15.13	0
2	1650	15.14	0
2	1651	15.15	0
2	1652	15.16	0
2	1653	15.17	0
2	1654	15.18	0
2	1655	15.19	0
2	1656	15.2	0
2	1657	15.21	0
2	1658	15.22	0
2	1659	15.23	0
2	1660	15.24	0
2	1661	15.25	0
2	1662	15.26	0
2	1663	15.27	0
2	1664	15.28	0
2	1665	15.29	0
2	1666	15.3	0
2	1667	15.31	0
2	1668	15.32	0
2	1669	15.33	0
2	1670	15.34	0
2	1671	15.35	0
2	1672	15.36	0
2	1673	15.37	0
2	1674	15.38	0
2	1675	15.39	0
2	1676	15.4	0
2	1677	15.41	0
2	1678	15.42	0
2	1679	15.43	0
2	1680	15.44	0
2	1681	15.45	0
2	1682	15.46	0
2	1683	15.47	0
2	1684	15.48	0
2	1685	15.49	0
2	1686	15.5	0
2	1687	15.51	0
2	1688	15.52	0
2	1689	15.53	0
2	1690	15.54	0
2	1691	15.55	0
2	1692	15.56	0
2	1693	15.57	0
2	1694	15.58	0
2	1695	15.59	0
2	1696	15.6	0
2	1697	15.61	0
2	1707	15.62	0
2	1708	15.63	0
2	1709	15.64	0
2	1710	15.65	0
2	1711	15.66	0
2	1712	15.67	0
2	1713	15.68	0
2	1714	15.69	0
2	1715	15.7	0
2	1716	15.71	0
2	1717	15.72	0
2	1718	15.73	0
2	1719	15.74	0
2	1720	15.75	0
2	1721	15.76	0
2	1722	15.77	0
2	1723	15.78	0
2	1724	15.79	0
2	1725	15.8	0
2	1726	15.81	0
2	1727	15.82	0
2	1728	15.83	0
2	1729	15.84	0
2	1730	15.85	0
2	1731	15.86	0
2	1732	15.87	0
2	1733	15.88	0
2	1734	15.89	0
2	1735	15.9	0
2	1736	15.91	0
2	1737	15.92	0
2	1738	15.93	0
2	1739	15.94	0
2	1740	15.95	0
2	1741	15.96	0
2	1742	15.97	0
2	1743	15.98	0
2	1744	15.99	0
2	1745	16	0
2	1746	16.01	0
2	1747	16.02	0
2	1748	16.03	0
2	1749	16.04	0
2	1750	16.05	0
2	1751	16.06	0
2	1752	16.07	0
2	1753	16.08	0
2	1754	16.09	0
2	1755	16.1	0
2	1756	16.11	0
2	1757	16.12	0
2	1758	16.13	0
2	1759	16.14	0
2	1760	16.15	0
2	1761	16.16	0
2	1762	16.17	0
2	1763	16.18	0
2	1764	16.19	0
2	1765	16.2	0
2	1766	16.21	0
2	1767	16.22	0
2	1768	16.23	0
2	1769	16.24	0
2	1770	16.25	0
2	1771	16.26	0
2	1772	16.27	0
2	1773	16.28	0
2	1774	16.29	0
2	1775	16.3	0
2	1776	16.31	0
2	1777	16.32	0
2	1778	16.33	0
2	1779	16.34	0
2	1780	16.35	0
2	1781	16.36	0
2	1782	16.37	0
2	1783	16.38	0
2	1784	16.39	0
2	1785	16.4	0
2	1786	16.41	0
2	1787	16.42	0
2	1788	16.43	0
2	1789	16.44	0
2	1790	16.45	0
2	1791	16.46	0
2	1792	16.47	0
2	1793	16.48	0
2	1794	16.49	0
2	1795	16.5	0
2	1796	16.51	0
2	1797	16.52	0
2	1798	16.53	0
2	1799	16.54	0
2	1800	16.55	0
2	1801	16.56	0
2	1802	16.57	0
2	1803	16.58	0
2	1804	16.59	0
2	1805	16.6	0
2	1806	16.61	0
2	1816	16.62	0
2	1817	16.63	0
2	1818	16.64	0
2	1819	16.65	0
2	1820	16.66	0
2	1821	16.67	0
2	1822	16.68	0
2	1823	16.69	0
2	1824	16.7	0
2	1825	16.71	0
2	1826	16.72	0
2	1827	16.73	0
2	1828	16.74	0
2	1829	16.75	0
2	1830	16.76	0
2	1831	16.77	0
2	1832	16.78	0
2	1833	16.79	0
2	1834	16.8	0
2	1835	16.81	0
2	1836	16.82	0
2	1837	16.83	0
2	1838	16.84	0
2	1839	16.85	0
2	1840	16.86	0
2	1841	16.87	0
2	1842	16.88	0
2	1843	16.89	0
2	1844	16.9	0
2	1845	16.91	0
2	1846	16.92	0
2	1847	16.93	0
2	1848	16.94	0
2	1849	16.95	0
2	1850	16.96	0
2	1851	16.97	0
2	1852	16.98	0
2	1853	16.99	0
2	1854	17	0
2	1855	17.01	0
2	1856	17.02	0
2	1857	17.03	0
2	1858	17.04	0
2	1859	17.05	0
2	1860	17.06	0
2	1861	17.07	0
2	1862	17.08	0
2	1863	17.09	0
2	1864	17.1	0
2	1865	17.11	0
2	1866	17.12	0
2	1867	17.13	0
2	1868	17.14	0
2	1869	17.15	0
2	1870	17.16	0
2	1871	17.17	0
2	1872	17.18	0
2	1873	17.19	0
2	1874	17.2	0
2	1875	17.21	0
2	1876	17.22	0
2	1877	17.23	0
2	1878	17.24	0
2	1879	17.25	0
2	1880	17.26	0
2	1881	17.27	0
2	1882	17.28	0
2	1883	17.29	0
2	1884	17.3	0
2	1885	17.31	0
2	1886	17.32	0
2	1887	17.33	0
2	1888	17.34	0
2	1889	17.35	0
2	1890	17.36	0
2	1891	17.37	0
2	1892	17.38	0
2	1893	17.39	0
2	1894	17.4	0
2	1895	17.41	0
2	1896	17.42	0
2	1897	17.43	0
2	1898	17.44	0
2	1899	17.45	0
2	1900	17.46	0
2	1901	17.47	0
2	1902	17.48	0
2	1903	17.49	0
2	1904	17.5	0
2	1905	17.51	0
2	1906	17.52	0
2	1907	17.53	0
2	1908	17.54	0
2	1909	17.55	0
2	1910	17.56	0
2	1911	17.57	0
2	1912	17.58	0
2	1913	17.59	0
2	1914	17.6	0
2	1915	17.61	0
2	1925	17.62	0
2	1926	17.63	0
2	1927	17.64	0
2	1928	17.65	0
2	1929	17.66	0
2	1930	17.67	0
2	1931	17.68	0
2	1932	17.69	0
2	1933	17.7	0
2	1934	17.71	0
2	1935	17.72	0
2	1936	17.73	0
2	1937	17.74	0
2	1938	17.75	0
2	1939	17.76	0
2	1940	17.77	0
2	1941	17.78	0
2	1942	17.79	0
2	1943	17.8	0
2	1944	17.81	0
2	1945	17.82	0
2	1946	17.83	0
2	1947	17.84	0
2	1948	17.85	0
2	1949	17.86	0
2	1950	17.87	0
2	1951	17.88	0
2	1952	17.89	0
2	1953	17.9	0
2	1954	17.91	0
2	1955	17.92	0
2	1956	17.93	0
2	1957	17.94	0
2	1958	17.95	0
2	1959	17.96	0
2	1960	17.97	0
2	1961	17.98	0
2	1962	17.99	0
2	1963	18	0
2	1964	18.01	0
2	1965	18.02	0
2	1966	18.03	0
2	1967	18.04	0
2	1968	18.05	0
2	1969	18.06	0
2	1970	18.07	0
2	1971	18.08	0
2	1972	18.09	0
2	1973	18.1	0
2	1974	18.11	0
2	1975	18.12	0
2	1976	18.13	0
2	1977	18.14	0
2	1978	18.15	0
2	1979	18.16	0
2	1980	18.17	0
2	1981	18.18	0
2	1982	18.19	0
2	1983	18.2	0
2	1984	18.21	0
2	1985	18.22	0
2	1986	18.23	0
2	1987	18.24	0
2	1988	18.25	0
2	1989	18.26	0
2	1990	18.27	0
2	1991	18.28	0
2	1992	18.29	0
2	1993	18.3	0
2	1994	18.31	0
2	1995	18.32	0
2	1996	18.33	0
2	1997	18.34	0
2	1998	18.35	0
2	1999	18.36	0
2	2000	18.37	0
2	2001	18.38	0
2	2002	18.39	0
2	2003	18.4	0
2	2004	18.41	0
2	2005	18.42	0
2	2006	18.43	0
2	2007	18.44	0
2	2008	18.45	0
2	2009	18.46	0
2	2010	18.47	0
2	2011	18.48	0
2	2012	18.49	0
2	2013	18.5	0
2	2014	18.51	0
2	2015	18.52	0
2	2016	18.53	0
2	2017	18.54	0
2	2018	18.55	0
2	2019	18.56	0
2	2020	18.57	0
2	2021	18.58	0
2	2022	18.59	0
2	2023	18.6	0
2	2024	18.61	0
2	2034	18.62	0
2	2035	18.63	0
2	2036	18.64	0
2	2037	18.65	0
2	2038	18.66	0
2	2039	18.67	0
2	2040	18.68	0
2	2041	18.69	0
2	2042	18.7	0
2	2043	18.71	0
2	2044	18.72	0
2	2045	18.73	0
2	2046	18.74	0
2	2047	18.75	0
2	2048	18.76	0
2	2049	18.77	0
2	2050	18.78	0
2	2051	18.79	0
2	2052	18.8	0
2	2053	18.81	0
2	2054	18.82	0
2	2055	18.83	0
2	2056	18.84	0
2	2057	18.85	0
2	2058	18.86	0
2	2059	18.87	0
2	2060	18.88	0
2	2061	18.89	0
2	2062	18.9	0
2	2063	18.91	0
2	2064	18.92	0
2	2065	18.93	0
2	2066	18.94	0
2	2067	18.95	0
2	2068	18.96	0
2	2069	18.97	0
2	2070	18.98	0
2	2071	18.99	0
2	2072	19	0
2	2073	19.01	0
2	2074	19.02	0
2	2075	19.03	0
2	2076	19.04	0
2	2077	19.05	0
2	2078	19.06	0
2	2079	19.07	0
2	2080	19.08	0
2	2081	19.09	0
2	2082	19.1	0
2	2083	19.11	0
2	2084	19.12	0
2	2085	19.13	0
2	2086	19.14	0
2	2087	19.15	0
2	2088	19.16	0
2	2089	19.17	0
2	2090	19.18	0
2	2091	19.19	0
2	2092	19.2	0
2	2093	19.21	0
2	2094	19.22	0
2	2095	19.23	0
2	2096	19.24	0
2	2097	19.25	0
2	2098	19.26	0
2	2099	19.27	0
2	2100	19.28	0
2	2101	19.29	0
2	2102	19.3	0
2	2103	19.31	0
2	2104	19.32	0
2	2105	19.33	0
2	2106	19.34	0
2	2107	19.35	0
2	2108	19.36	0
2	2109	19.37	0
2	2110	19.38	0
2	2111	19.39	0
2	2112	19.4	0
2	2113	19.41	0
2	2114	19.42	0
2	2115	19.43	0
2	2116	19.44	0
2	2117	19.45	0
2	2118	19.46	0
2	2119	19.47	0
2	2120	19.48	0
2	2121	19.49	0
2	2122	19.5	0
2	2123	19.51	0
2	2124	19.52	0
2	2125	19.53	0
2	2126	19.54	0
2	2127	19.55	0
2	2128	19.56	0
2	2129	19.57	0
2	2130	19.58	0
2	2131	19.59	0
2	2132	19.6	0
2	2133	19.61	0
2	2143	19.62	0
2	2144	19.63	0
2	2145	19.64	0
2	2146	19.65	0
2	2147	19.66	0
2	2148	19.67	0
2	2149	19.68	0
2	2150	19.69	0
2	2151	19.7	0
2	2152	19.71	0
2	2153	19.72	0
2	2154	19.73	0
2	2155	19.74	0
2	2156	19.75	0
2	2157	19.76	0
2	2158	19.77	0
2	2159	19.78	0
2	2160	19.79	0
2	2161	19.8	0
2	2162	19.81	0
2	2163	19.82	0
2	2164	19.83	0
2	2165	19.84	0
2	2166	19.85	0
2	2167	19.86	0
2	2168	19.87	0
2	2169	19.88	0
2	2170	19.89	0
2	2171	19.9	0
2	2172	19.91	0
2	2173	19.92	0
2	2174	19.93	0
2	2175	19.94	0
2	2176	19.95	0
2	2177	19.96	0
2	2178	19.97	0
2	2179	19.98	0
2	2180	19.99	0
2	2181	20	0
2	2182	20.01	0
2	2183	20.02	0
2	2184	20.03	0
2	2185	20.04	0
2	2186	20.05	0
2	2187	20.06	0
2	2188	20.07	0
2	2189	20.08	0
2	2190	20.09	0
2	2191	20.1	0
2	2192	20.11	0
2	2193	20.12	0
2	2194	20.13	0
2	2195	20.14	0
2	2196	20.15	0
2	2197	20.16	0
2	2198	20.17	0
2	2199	20.18	0
2	2200	20.19	0
2	2201	20.2	0
2	2202	20.21	0
2	2203	20.22	0
2	2204	20.23	0
2	2205	20.24	0
2	2206	20.25	0
2	2207	20.26	0
2	2208	20.27	0
2	2209	20.28	0
2	2210	20.29	0
2	2211	20.3	0
2	2212	20.31	0
2	2213	20.32	0
2	2214	20.33	0
2	2215	20.34	0
2	2216	20.35	0
2	2217	20.36	0
2	2218	20.37	0
2	2219	20.38	0
2	2220	20.39	0
2	2221	20.4	0
2	2222	20.41	0
2	2223	20.42	0
2	2224	20.43	0
2	2225	20.44	0
2	2226	20.45	0
2	2227	20.46	0
2	2228	20.47	0
2	2229	20.48	0
2	2230	20.49	0
2	2231	20.5	0
2	2232	20.51	0
2	2233	20.52	0
2	2234	20.53	0
2	2235	20.54	0
2	2236	20.55	0
2	2237	20.56	0
2	2238	20.57	0
2	2239	20.58	0
2	2240	20.59	0
2	2241	20.6	0
2	2242	20.61	0
2	2252	20.62	0
2	2253	20.63	0
2	2254	20.64	0
2	2255	20.65	0
2	2256	20.66	0
2	2257	20.67	0
2	2258	20.68	0
2	2259	20.69	0
2	2260	20.7	0
2	2261	20.71	0
2	2262	20.72	0
2	2263	20.73	0
2	2264	20.74	0
2	2265	20.75	0
2	2266	20.76	0
2	2267	20.77	0
2	2268	20.78	0
2	2269	20.79	0
2	2270	20.8	0
2	2271	20.81	0
2	2272	20.82	0
2	2273	20.83	0
2	2274	20.84	0
2	2275	20.85	0
2	2276	20.86	0
2	2277	20.87	0
2	2278	20.88	0
2	2279	20.89	0
2	2280	20.9	0
2	2281	20.91	0
2	2282	20.92	0
2	2283	20.93	0
2	2284	20.94	0
2	2285	20.95	0
2	2286	20.96	0
2	2287	20.97	0
2	2288	20.98	0
2	2289	20.99	0
2	2290	21	0
2	2291	21.01	0
2	2292	21.02	0
2	2293	21.03	0
2	2294	21.04	0
2	2295	21.05	0
2	2296	21.06	0
2	2297	21.07	0
2	2298	21.08	0
2	2299	21.09	0
2	2300	21.1	0
2	2301	21.11	0
2	2302	21.12	0
2	2303	21.13	0
2	2304	21.14	0
2	2305	21.15	0
2	2306	21.16	0
2	2307	21.17	0
2	2308	21.18	0
2	2309	21.19	0
2	2310	21.2	0
2	2311	21.21	0
2	2312	21.22	0
2	2313	21.23	0
2	2314	21.24	0
2	2315	21.25	0
2	2316	21.26	0
2	2317	21.27	0
2	2318	21.28	0
2	2319	21.29	0
2	2320	21.3	0
2	2321	21.31	0
2	2322	21.32	0
2	2323	21.33	0
2	2324	21.34	0
2	2325	21.35	0
2	2326	21.36	0
2	2327	21.37	0
2	2328	21.38	0
2	2329	21.39	0
2	2330	21.4	0
2	2331	21.41	0
2	2332	21.42	0
2	2333	21.43	0
2	2334	21.44	0
2	2335	21.45	0
2	2336	21.46	0
2	2337	21.47	0
2	2338	21.48	0
2	2339	21.49	0
2	2340	21.5	0
2	2341	21.51	0
2	2342	21.52	0
2	2343	21.53	0
2	2344	21.54	0
2	2345	21.55	0
2	2346	21.56	0
2	2347	21.57	0
2	2348	21.58	0
2	2349	21.59	0
2	2350	21.6	0
2	2351	21.61	0
2	2361	21.62	0
2	2362	21.63	0
2	2363	21.64	0
2	2364	21.65	0
2	2365	21.66	0
2	2366	21.67	0
2	2367	21.68	0
2	2368	21.69	0
2	2369	21.7	0
2	2370	21.71	0
2	2371	21.72	0
2	2372	21.73	0
2	2373	21.74	0
2	2374	21.75	0
2	2375	21.76	0
2	2376	21.77	0
2	2377	21.78	0
2	2378	21.79	0
2	2379	21.8	0
2	2380	21.81	0
2	2381	21.82	0
2	2382	21.83	0
2	2383	21.84	0
2	2384	21.85	0
2	2385	21.86	0
2	2386	21.87	0
2	2387	21.88	0
2	2388	21.89	0
2	2389	21.9	0
2	2390	21.91	0
2	2391	21.92	0
2	2392	21.93	0
2	2393	21.94	0
2	2394	21.95	0
2	2395	21.96	0
2	2396	21.97	0
2	2397	21.98	0
2	2398	21.99	0
2	2399	22	0
2	2400	22.01	0
2	2401	22.02	0
2	2402	22.03	0
2	2403	22.04	0
2	2404	22.05	0
2	2405	22.06	0
2	2406	22.07	0
2	2407	22.08	0
2	2408	22.09	0
2	2409	22.1	0
2	2410	22.11	0
2	2411	22.12	0
2	2412	22.13	0
2	2413	22.14	0
2	2414	22.15	0
2	2415	22.16	0
2	2416	22.17	0
2	2417	22.18	0
2	2418	22.19	0
2	2419	22.2	0
2	2420	22.21	0
2	2421	22.22	0
2	2422	22.23	0
2	2423	22.24	0
2	2424	22.25	0
2	2425	22.26	0
2	2426	22.27	0
2	2427	22.28	0
2	2428	22.29	0
2	2429	22.3	0
2	2430	22.31	0
2	2431	22.32	0
2	2432	22.33	0
2	2433	22.34	0
2	2434	22.35	0
2	2435	22.36	0
2	2436	22.37	0
2	2437	22.38	0
2	2438	22.39	0
2	2439	22.4	0
2	2440	22.41	0
2	2441	22.42	0
2	2442	22.43	0
2	2443	22.44	0
2	2444	22.45	0
2	2445	22.46	0
2	2446	22.47	0
2	2447	22.48	0
2	2448	22.49	0
2	2449	22.5	0
2	2450	22.51	0
2	2451	22.52	0
2	2452	22.53	0
2	2453	22.54	0
2	2454	22.55	0
2	2455	22.56	0
2	2456	22.57	0
2	2457	22.58	0
2	2458	22.59	0
2	2459	22.6	0
2	2460	22.61	0
2	2470	22.62	0
2	2471	22.63	0
2	2472	22.64	0
2	2473	22.65	0
2	2474	22.66	0
2	2475	22.67	0
2	2476	22.68	0
2	2477	22.69	0
2	2478	22.7	0
2	2479	22.71	0
2	2480	22.72	0
2	2481	22.73	0
2	2482	22.74	0
2	2483	22.75	0
2	2484	22.76	0
2	2485	22.77	0
2	2486	22.78	0
2	2487	22.79	0
2	2488	22.8	0
2	2489	22.81	0
2	2490	22.82	0
2	2491	22.83	0
2	2492	22.84	0
2	2493	22.85	0
2	2494	22.86	0
2	2495	22.87	0
2	2496	22.88	0
2	2497	22.89	0
2	2498	22.9	0
2	2499	22.91	0
2	2500	22.92	0
2	2501	22.93	0
2	2502	22.94	0
2	2503	22.95	0
2	2504	22.96	0
2	2505	22.97	0
2	2506	22.98	0
2	2507	22.99	0
2	2508	23	0
2	2509	23.01	0
2	2510	23.02	0
2	2511	23.03	0
2	2512	23.04	0
2	2513	23.05	0
2	2514	23.06	0
2	2515	23.07	0
2	2516	23.08	0
2	2517	23.09	0
2	2518	23.1	0
2	2519	23.11	0
2	2520	23.12	0
2	2521	23.13	0
2	2522	23.14	0
2	2523	23.15	0
2	2524	23.16	0
2	2525	23.17	0
2	2526	23.18	0
2	2527	23.19	0
2	2528	23.2	0
2	2529	23.21	0
2	2530	23.22	0
2	2531	23.23	0
2	2532	23.24	0
2	2533	23.25	0
2	2534	23.26	0
2	2535	23.27	0
2	2536	23.28	0
2	2537	23.29	0
2	2538	23.3	0
2	2539	23.31	0
2	2540	23.32	0
2	2541	23.33	0
2	2542	23.34	0
2	2543	23.35	0
2	2544	23.36	0
2	2545	23.37	0
2	2546	23.38	0
2	2547	23.39	0
2	2548	23.4	0
2	2549	23.41	0
2	2550	23.42	0
2	2551	23.43	0
2	2552	23.44	0
2	2553	23.45	0
2	2554	23.46	0
2	2555	23.47	0
2	2556	23.48	0
2	2557	23.49	0
2	2558	23.5	0
2	2559	23.51	0
2	2560	23.52	0
2	2561	23.53	0
2	2562	23.54	0
2	2563	23.55	0
2	2564	23.56	0
2	2565	23.57	0
2	2566	23.58	0
2	2567	23.59	0
2	2568	23.6	0
2	2569	23.61	0
2	2579	23.62	0
2	2580	23.63	0
2	2581	23.64	0
2	2582	23.65	0
2	2583	23.66	0
2	2584	23.67	0
2	2585	23.68	0
2	2586	23.69	0
2	2587	23.7	0
2	2588	23.71	0
2	2589	23.72	0
2	2590	23.73	0
2	2591	23.74	0
2	2592	23.75	0
2	2593	23.76	0
2	2594	23.77	0
2	2595	23.78	0
2	2596	23.79	0
2	2597	23.8	0
2	2598	23.81	0
2	2599	23.82	0
2	2600	23.83	0
2	2601	23.84	0
2	2602	23.85	0
2	2603	23.86	0
2	2604	23.87	0
2	2605	23.88	0
2	2606	23.89	0
2	2607	23.9	0
2	2608	23.91	0
2	2609	23.92	0
2	2610	23.93	0
2	2611	23.94	0
2	2612	23.95	0
2	2613	23.96	0
2	2614	23.97	0
2	2615	23.98	0
2	2616	23.99	0
2	2617	24	0
2	2618	24.01	0
2	2619	24.02	0
2	2620	24.03	0
2	2621	24.04	0
2	2622	24.05	0
2	2623	24.06	0
2	2624	24.07	0
2	2625	24.08	0
2	2626	24.09	0
2	2627	24.1	0
2	2628	24.11	0
2	2629	24.12	0
2	2630	24.13	0
2	2631	24.14	0
2	2632	24.15	0
2	2633	24.16	0
2	2634	24.17	0
2	2635	24.18	0
2	2636	24.19	0
2	2637	24.2	0
2	2638	24.21	0
2	2639	24.22	0
2	2640	24.23	0
2	2641	24.24	0
2	2642	24.25	0
2	2643	24.26	0
2	2644	24.27	0
2	2645	24.28	0
2	2646	24.29	0
2	2647	24.3	0
2	2648	24.31	0
2	2649	24.32	0
2	2650	24.33	0
2	2651	24.34	0
2	2652	24.35	0
2	2653	24.36	0
2	2654	24.37	0
2	2655	24.38	0
2	2656	24.39	0
2	2657	24.4	0
2	2658	24.41	0
2	2659	24.42	0
2	2660	24.43	0
2	2661	24.44	0
2	2662	24.45	0
2	2663	24.46	0
2	2664	24.47	0
2	2665	24.48	0
2	2666	24.49	0
2	2667	24.5	0
2	2668	24.51	0
2	2669	24.52	0
2	2670	24.53	0
2	2671	24.54	0
2	2672	24.55	0
2	2673	24.56	0
2	2674	24.57	0
2	2675	24.58	0
2	2676	24.59	0
2	2677	24.6	0
2	2678	24.61	0
2	2688	24.62	0
2	2689	24.63	0
2	2690	24.64	0
2	2691	24.65	0
2	2692	24.66	0
2	2693	24.67	0
2	2694	24.68	0
2	2695	24.69	0
2	2696	24.7	0
2	2697	24.71	0
2	2698	24.72	0
2	2699	24.73	0
2	2700	24.74	0
2	2701	24.75	0
2	2702	24.76	0
2	2703	24.77	0
2	2704	24.78	0
2	2705	24.79	0
2	2706	24.8	0
2	2707	24.81	0
2	2708	24.82	0
2	2709	24.83	0
2	2710	24.84	0
2	2711	24.85	0
2	2712	24.86	0
2	2713	24.87	0
2	2714	24.88	0
2	2715	24.89	0
2	2716	24.9	0
2	2717	24.91	0
2	2718	24.92	0
2	2719	24.93	0
2	2720	24.94	0
2	2721	24.95	0
2	2722	24.96	0
2	2723	24.97	0
2	2724	24.98	0
2	2725	24.99	0
2	2726	25	0
2	2727	25.01	0
2	2728	25.02	0
2	2729	25.03	0
2	2730	25.04	0
2	2731	25.05	0
2	2732	25.06	0
2	2733	25.07	0
2	2734	25.08	0
2	2735	25.09	0
2	2736	25.1	0
2	2737	25.11	0
2	2738	25.12	0
2	2739	25.13	0
2	2740	25.14	0
2	2741	25.15	0
2	2742	25.16	0
2	2743	25.17	0
2	2744	25.18	0
2	2745	25.19	0
2	2746	25.2	0
2	2747	25.21	0
2	2748	25.22	0
2	2749	25.23	0
2	2750	25.24	0
2	2751	25.25	0
2	2752	25.26	0
2	2753	25.27	0
2	2754	25.28	0
2	2755	25.29	0
2	2756	25.3	0
2	2757	25.31	0
2	2758	25.32	0
2	2759	25.33	0
2	2760	25.34	0
2	2761	25.35	0
2	2762	25.36	0
2	2763	25.37	0
2	2764	25.38	0
2	2765	25.39	0
2	2766	25.4	0
2	2767	25.41	0
2	2768	25.42	0
2	2769	25.43	0
2	2770	25.44	0
2	2771	25.45	0
2	2772	25.46	0
2	2773	25.47	0
2	2774	25.48	0
2	2775	25.49	0
2	2776	25.5	0
2	2777	25.51	0
2	2778	25.52	0
2	2779	25.53	0
2	2780	25.54	0
2	2781	25.55	0
2	2782	25.56	0
2	2783	25.57	0
2	2784	25.58	0
2	2785	25.59	0
2	2786	25.6	0
2	2787	25.61	0
2	2797	25.62	0
2	2798	25.63	0
2	2799	25.64	0
2	2800	25.65	0
2	2801	25.66	0
2	2802	25.67	0
2	2803	25.68	0
2	2804	25.69	0
2	2805	25.7	0
2	2806	25.71	0
2	2807	25.72	0
2	2808	25.73	0
2	2809	25.74	0
2	2810	25.75	0
2	2811	25.76	0
2	2812	25.77	0
2	2813	25.78	0
2	2814	25.79	0
2	2815	25.8	0
2	2816	25.81	0
2	2817	25.82	0
2	2818	25.83	0
2	2819	25.84	0
2	2820	25.85	0
2	2821	25.86	0
2	2822	25.87	0
2	2823	25.88	0
2	2824	25.89	0
2	2825	25.9	0
2	2826	25.91	0
2	2827	25.92	0
2	2828	25.93	0
2	2829	25.94	0
2	2830	25.95	0
2	2831	25.96	0
2	2832	25.97	0
2	2833	25.98	0
2	2834	25.99	0
2	2835	26	0
2	2836	26.01	0
2	2837	26.02	0
2	2838	26.03	0
2	2839	26.04	0
2	2840	26.05	0
2	2841	26.06	0
2	2842	26.07	0
2	2843	26.08	0
2	2844	26.09	0
2	2845	26.1	0
2	2846	26.11	0
2	2847	26.12	0
2	2848	26.13	0
2	2849	26.14	0
2	2850	26.15	0
2	2851	26.16	0
2	2852	26.17	0
2	2853	26.18	0
2	2854	26.19	0
2	2855	26.2	0
2	2856	26.21	0
2	2857	26.22	0
2	2858	26.23	0
2	2859	26.24	0
2	2860	26.25	0
2	2861	26.26	0
2	2862	26.27	0
2	2863	26.28	0
2	2864	26.29	0
2	2865	26.3	0
2	2866	26.31	0
2	2867	26.32	0
2	2868	26.33	0
2	2869	26.34	0
2	2870	26.35	0
2	2871	26.36	0
2	2872	26.37	0
2	2873	26.38	0
2	2874	26.39	0
2	2875	26.4	0
2	2876	26.41	0
2	2877	26.42	0
2	2878	26.43	0
2	2879	26.44	0
2	2880	26.45	0
2	2881	26.46	0
2	2882	26.47	0
2	2883	26.48	0
2	2884	26.49	0
2	2885	26.5	0
2	2886	26.51	0
2	2887	26.52	0
2	2888	26.53	0
2	2889	26.54	0
2	2890	26.55	0
2	2891	26.56	0
2	2892	26.57	0
2	2893	26.58	0
2	2894	26.59	0
2	2895	26.6	0
2	2896	26.61	0
2	2906	26.62	0
2	2907	26.63	0
2	2908	26.64	0
2	2909	26.65	0
2	2910	26.66	0
2	2911	26.67	0
2	2912	26.68	0
2	2913	26.69	0
2	2914	26.7	0
2	2915	26.71	0
2	2916	26.72	0
2	2917	26.73	0
2	2918	26.74	0
2	2919	26.75	0
2	2920	26.76	0
2	2921	26.77	0
2	2922	26.78	0
2	2923	26.79	0
2	2924	26.8	0
2	2925	26.81	0
2	2926	26.82	0
2	2927	26.83	0
2	2928	26.84	0
2	2929	26.85	0
2	2930	26.86	0
2	2931	26.87	0
2	2932	26.88	0
2	2933	26.89	0
2	2934	26.9	0
2	2935	26.91	0
2	2936	26.92	0
2	2937	26.93	0
2	2938	26.94	0
2	2939	26.95	0
2	2940	26.96	0
2	2941	26.97	0
2	2942	26.98	0
2	2943	26.99	0
2	2944	27	0
2	2945	27.01	0
2	2946	27.02	0
2	2947	27.03	0
2	2948	27.04	0
2	2949	27.05	0
2	2950	27.06	0
2	2951	27.07	0
2	2952	27.08	0
2	2953	27.09	0
2	2954	27.1	0
2	2955	27.11	0
2	2956	27.12	0
2	2957	27.13	0
2	2958	27.14	0
2	2959	27.15	0
2	2960	27.16	0
2	2961	27.17	0
2	2962	27.18	0
2	2963	27.19	0
2	2964	27.2	0
2	2965	27.21	0
2	2966	27.22	0
2	2967	27.23	0
2	2968	27.24	0
2	2969	27.25	0
2	2970	27.26	0
2	2971	27.27	0
2	2972	27.28	0
2	2973	27.29	0
2	2974	27.3	0
2	2975	27.31	0
2	2976	27.32	0
2	2977	27.33	0
2	2978	27.34	0
2	2979	27.35	0
2	2980	27.36	0
2	2981	27.37	0
2	2982	27.38	0
2	2983	27.39	0
2	2984	27.4	0
2	2985	27.41	0
2	2986	27.42	0
2	2987	27.43	0
2	2988	27.44	0
2	2989	27.45	0
2	2990	27.46	0
2	2991	27.47	0
2	2992	27.48	0
2	2993	27.49	0
2	2994	27.5	0
2	2995	27.51	0
2	2996	27.52	0
2	2997	27.53	0
2	2998	27.54	0
2	2999	27.55	0
2	3000	27.56	0
2	3001	27.57	0
2	3002	27.58	0
2	3003	27.59	0
2	3004	27.6	0
2	3005	27.61	0
2	3015	27.62	0
2	3016	27.63	0
2	3017	27.64	0
2	3018	27.65	0
2	3019	27.66	0
2	3020	27.67	0
2	3021	27.68	0
2	3022	27.69	0
2	3023	27.7	0
2	3024	27.71	0
2	3025	27.72	0
2	3026	27.73	0
2	3027	27.74	0
2	3028	27.75	0
2	3029	27.76	0
2	3030	27.77	0
2	3031	27.78	0
2	3032	27.79	0
2	3033	27.8	0
2	3034	27.81	0
2	3035	27.82	0
2	3036	27.83	0
2	3037	27.84	0
2	3038	27.85	0
2	3039	27.86	0
2	3040	27.87	0
2	3041	27.88	0
2	3042	27.89	0
2	3043	27.9	0
2	3044	27.91	0
2	3045	27.92	0
2	3046	27.93	0
2	3047	27.94	0
2	3048	27.95	0
2	3049	27.96	0
2	3050	27.97	0
2	3051	27.98	0
2	3052	27.99	0
2	3053	28	0
2	3054	28.01	0
2	3055	28.02	0
2	3056	28.03	0
2	3057	28.04	0
2	3058	28.05	0
2	3059	28.06	0
2	3060	28.07	0
2	3061	28.08	0
2	3062	28.09	0
2	3063	28.1	0
2	3064	28.11	0
2	3065	28.12	0
2	3066	28.13	0
2	3067	28.14	0
2	3068	28.15	0
2	3069	28.16	0
2	3070	28.17	0
2	3071	28.18	0
2	3072	28.19	0
2	3073	28.2	0
2	3074	28.21	0
2	3075	28.22	0
2	3076	28.23	0
2	3077	28.24	0
2	3078	28.25	0
2	3079	28.26	0
2	3080	28.27	0
2	3081	28.28	0
2	3082	28.29	0
2	3083	28.3	0
2	3084	28.31	0
2	3085	28.32	0
2	3086	28.33	0
2	3087	28.34	0
2	3088	28.35	0
2	3089	28.36	0
2	3090	28.37	0
2	3091	28.38	0
2	3092	28.39	0
2	3093	28.4	0
2	3094	28.41	0
2	3095	28.42	0
2	3096	28.43	0
2	3097	28.44	0
2	3098	28.45	0
2	3099	28.46	0
2	3100	28.47	0
2	3101	28.48	0
2	3102	28.49	0
2	3103	28.5	0
2	3104	28.51	0
2	3105	28.52	0
2	3106	28.53	0
2	3107	28.54	0
2	3108	28.55	0
2	3109	28.56	0
2	3110	28.57	0
2	3111	28.58	0
2	3112	28.59	0
2	3113	28.6	0
2	3114	28.61	0
2	3124	28.62	0
2	3125	28.63	0
2	3126	28.64	0
2	3127	28.65	0
2	3128	28.66	0
2	3129	28.67	0
2	3130	28.68	0
2	3131	28.69	0
2	3132	28.7	0
2	3133	28.71	0
2	3134	28.72	0
2	3135	28.73	0
2	3136	28.74	0
2	3137	28.75	0
2	3138	28.76	0
2	3139	28.77	0
2	3140	28.78	0
2	3141	28.79	0
2	3142	28.8	0
2	3143	28.81	0
2	3144	28.82	0
2	3145	28.83	0
2	3146	28.84	0
2	3147	28.85	0
2	3148	28.86	0
2	3149	28.87	0
2	3150	28.88	0
2	3151	28.89	0
2	3152	28.9	0
2	3153	28.91	0
2	3154	28.92	0
2	3155	28.93	0
2	3156	28.94	0
2	3157	28.95	0
2	3158	28.96	0
2	3159	28.97	0
2	3160	28.98	0
2	3161	28.99	0
2	3162	29	0
2	3163	29.01	0
2	3164	29.02	0
2	3165	29.03	0
2	3166	29.04	0
2	3167	29.05	0
2	3168	29.06	0
2	3169	29.07	0
2	3170	29.08	0
2	3171	29.09	0
2	3172	29.1	0
2	3173	29.11	0
2	3174	29.12	0
2	3175	29.13	0
2	3176	29.14	0
2	3177	29.15	0
2	3178	29.16	0
2	3179	29.17	0
2	3180	29.18	0
2	3181	29.19	0
2	3182	29.2	0
2	3183	29.21	0
2	3184	29.22	0
2	3185	29.23	0
2	3186	29.24	0
2	3187	29.25	0
2	3188	29.26	0
2	3189	29.27	0
2	3190	29.28	0
2	3191	29.29	0
2	3192	29.3	0
2	3193	29.31	0
2	3194	29.32	0
2	3195	29.33	0
2	3196	29.34	0
2	3197	29.35	0
2	3198	29.36	0
2	3199	29.37	0
2	3200	29.38	0
2	3201	29.39	0
2	3202	29.4	0
2	3203	29.41	0
2	3204	29.42	0
2	3205	29.43	0
2	3206	29.44	0
2	3207	29.45	0
2	3208	29.46	0
2	3209	29.47	0
2	3210	29.48	0
2	3211	29.49	0
2	3212	29.5	0
2	3213	29.51	0
2	3214	29.52	0
2	3215	29.53	0
2	3216	29.54	0
2	3217	29.55	0
2	3218	29.56	0
2	3219	29.57	0
2	3220	29.58	0
2	3221	29.59	0
2	3222	29.6	0
2	3223	29.61	0
2	3233	29.62	0
2	3234	29.63	0
2	3235	29.64	0
2	3236	29.65	0
2	3237	29.66	0
2	3238	29.67	0
2	3239	29.68	0
2	3240	29.69	0
2	3241	29.7	0
2	3242	29.71	0
2	3243	29.72	0
2	3244	29.73	0
2	3245	29.74	0
2	3246	29.75	0
2	3247	29.76	0
2	3248	29.77	0
2	3249	29.78	0
2	3250	29.79	0
2	3251	29.8	0
2	3252	29.81	0
2	3253	29.82	0
2	3254	29.83	0
2	3255	29.84	0
2	3256	29.85	0
2	3257	29.86	0
2	3258	29.87	0
2	3259	29.88	0
2	3260	29.89	0
2	3261	29.9	0
2	3262	29.91	0
2	3263	29.92	0
2	3264	29.93	0
2	3265	29.94	0
2	3266	29.95	0
2	3267	29.96	0
2	3268	29.97	0
2	3269	29.98	0
2	3270	29.99	0
2	3271	30	0
2	3272	30.01	0
2	3273	30.02	0
2	3274	30.03	0
2	3275	30.04	0
2	3276	30.05	0
2	3277	30.06	0
2	3278	30.07	0
2	3279	30.08	0
2	3280	30.09	0
2	3281	30.1	0
2	3282	30.11	0
2	3283	30.12	0
2	3284	30.13	0
2	3285	30.14	0
2	3286	30.15	0
2	3287	30.16	0
2	3288	30.17	0
2	3289	30.18	0
2	3290	30.19	0
2	3291	30.2	0
2	3292	30.21	0
2	3293	30.22	0
2	3294	30.23	0
2	3295	30.24	0
2	3296	30.25	0
2	3297	30.26	0
2	3298	30.27	0
2	3299	30.28	0
2	3300	30.29	0
2	3301	30.3	0
2	3302	30.31	0
2	3303	30.32	0
2	3304	30.33	0
2	3305	30.34	0
2	3306	30.35	0
2	3307	30.36	0
2	3308	30.37	0
2	3309	30.38	0
2	3310	30.39	0
2	3311	30.4	0
2	3312	30.41	0
2	3313	30.42	0
2	3314	30.43	0
2	3315	30.44	0
2	3316	30.45	0
2	3317	30.46	0
2	3318	30.47	0
2	3319	30.48	0
2	3320	30.49	0
2	3321	30.5	0
2	3322	30.51	0
2	3323	30.52	0
2	3324	30.53	0
2	3325	30.54	0
2	3326	30.55	0
2	3327	30.56	0
2	3328	30.57	0
2	3329	30.58	0
2	3330	30.59	0
2	3331	30.6	0
2	3332	30.61	0
2	3342	30.62	0
2	3343	30.63	0
2	3344	30.64	0
2	3345	30.65	0
2	3346	30.66	0
2	3347	30.67	0
2	3348	30.68	0
2	3349	30.69	0
2	3350	30.7	0
2	3351	30.71	0
2	3352	30.72	0
2	3353	30.73	0
2	3354	30.74	0
2	3355	30.75	0
2	3356	30.76	0
2	3357	30.77	0
2	3358	30.78	0
2	3359	30.79	0
2	3360	30.8	0
2	3361	30.81	0
2	3362	30.82	0
2	3363	30.83	0
2	3364	30.84	0
2	3365	30.85	0
2	3366	30.86	0
2	3367	30.87	0
2	3368	30.88	0
2	3369	30.89	0
2	3370	30.9	0
2	3371	30.91	0
2	3372	30.92	0
2	3373	30.93	0
2	3374	30.94	0
2	3375	30.95	0
2	3376	30.96	0
2	3377	30.97	0
2	3378	30.98	0
2	3379	30.99	0
2	3380	31	0
2	3381	31.01	0
2	3382	31.02	0
2	3383	31.03	0
2	3384	31.04	0
2	3385	31.05	0
2	3386	31.06	0
2	3387	31.07	0
2	3388	31.08	0
2	3389	31.09	0
2	3390	31.1	0
2	3391	31.11	0
2	3392	31.12	0
2	3393	31.13	0
2	3394	31.14	0
2	3395	31.15	0
2	3396	31.16	0
2	3397	31.17	0
2	3398	31.18	0
2	3399	31.19	0
2	3400	31.2	0
2	3401	31.21	0
2	3402	31.22	0
2	3403	31.23	0
2	3404	31.24	0
2	3405	31.25	0
2	3406	31.26	0
2	3407	31.27	0
2	3408	31.28	0
2	3409	31.29	0
2	3410	31.3	0
2	3411	31.31	0
2	3412	31.32	0
2	3413	31.33	0
2	3414	31.34	0
2	3415	31.35	0
2	3416	31.36	0
2	3417	31.37	0
2	3418	31.38	0
2	3419	31.39	0
2	3420	31.4	0
2	3421	31.41	0
2	3422	31.42	0
2	3423	31.43	0
2	3424	31.44	0
2	3425	31.45	0
2	3426	31.46	0
2	3427	31.47	0
2	3428	31.48	0
2	3429	31.49	0
2	3430	31.5	0
2	3431	31.51	0
2	3432	31.52	0
2	3433	31.53	0
2	3434	31.54	0
2	3435	31.55	0
2	3436	31.56	0
2	3437	31.57	0
2	3438	31.58	0
2	3439	31.59	0
2	3440	31.6	0
2	3441	31.61	0
2	3451	31.62	0
2	3452	31.63	0
2	3453	31.64	0
2	3454	31.65	0
2	3455	31.66	0
2	3456	31.67	0
2	3457	31.68	0
2	3458	31.69	0
2	3459	31.7	0
2	3460	31.71	0
2	3461	31.72	0
2	3462	31.73	0
2	3463	31.74	0
2	3464	31.75	0
2	3465	31.76	0
2	3466	31.77	0
2	3467	31.78	0
2	3468	31.79	0
2	3469	31.8	0
2	3470	31.81	0
2	3471	31.82	0
2	3472	31.83	0
2	3473	31.84	0
2	3474	31.85	0
2	3475	31.86	0
2	3476	31.87	0
2	3477	31.88	0
2	3478	31.89	0
2	3479	31.9	0
2	3480	31.91	0
2	3481	31.92	0
2	3482	31.93	0
2	3483	31.94	0
2	3484	31.95	0
2	3485	31.96	0
2	3486	31.97	0
2	3487	31.98	0
2	3488	31.99	0
2	3489	32	0
2	3490	32.01	0
2	3491	32.02	0
2	3492	32.03	0
2	3493	32.04	0
2	3494	32.05	0
2	3495	32.06	0
2	3496	32.07	0
2	3497	32.08	0
2	3498	32.09	0
2	3499	32.1	0
2	3500	32.11	0
2	3501	32.12	0
2	3502	32.13	0
2	3503	32.14	0
2	3504	32.15	0
2	3505	32.16	0
2	3506	32.17	0
2	3507	32.18	0
2	3508	32.19	0
2	3509	32.2	0
2	3510	32.21	0
2	3511	32.22	0
2	3512	32.23	0
2	3513	32.24	0
2	3514	32.25	0
2	3515	32.26	0
2	3516	32.27	0
2	3517	32.28	0
2	3518	32.29	0
2	3519	32.3	0
2	3520	32.31	0
2	3521	32.32	0
2	3522	32.33	0
2	3523	32.34	0
2	3524	32.35	0
2	3525	32.36	0
2	3526	32.37	0
2	3527	32.38	0
2	3528	32.39	0
2	3529	32.4	0
2	3530	32.41	0
2	3531	32.42	0
2	3532	32.43	0
2	3533	32.44	0
2	3534	32.45	0
2	3535	32.46	0
2	3536	32.47	0
2	3537	32.48	0
2	3538	32.49	0
2	3539	32.5	0
2	3540	32.51	0
2	3541	32.52	0
2	3542	32.53	0
2	3543	32.54	0
2	3544	32.55	0
2	3545	32.56	0
2	3546	32.57	0
2	3547	32.58	0
2	3548	32.59	0
2	3549	32.6	0
2	3550	32.61	0
2	3560	32.62	0
2	3561	32.63	0
2	3562	32.64	0
2	3563	32.65	0
2	3564	32.66	0
2	3565	32.67	0
2	3566	32.68	0
2	3567	32.69	0
2	3568	32.7	0
2	3569	32.71	0
2	3570	32.72	0
2	3571	32.73	0
2	3572	32.74	0
2	3573	32.75	0
2	3574	32.76	0
2	3575	32.77	0
2	3576	32.78	0
2	3577	32.79	0
2	3578	32.8	0
2	3579	32.81	0
2	3580	32.82	0
2	3581	32.83	0
2	3582	32.84	0
2	3583	32.85	0
2	3584	32.86	0
2	3585	32.87	0
2	3586	32.88	0
2	3587	32.89	0
2	3588	32.9	0
2	3589	32.91	0
2	3590	32.92	0
2	3591	32.93	0
2	3592	32.94	0
2	3593	32.95	0
2	3594	32.96	0
2	3595	32.97	0
2	3596	32.98	0
2	3597	32.99	0
2	3598	33	0
2	3599	33.01	0
2	3600	33.02	0
2	3601	33.03	0
2	3602	33.04	0
2	3603	33.05	0
2	3604	33.06	0
2	3605	33.07	0
2	3606	33.08	0
2	3607	33.09	0
2	3608	33.1	0
2	3609	33.11	0
2	3610	33.12	0
2	3611	33.13	0
2	3612	33.14	0
2	3613	33.15	0
2	3614	33.16	0
2	3615	33.17	0
2	3616	33.18	0
2	3617	33.19	0
2	3618	33.2	0
2	3619	33.21	0
2	3620	33.22	0
2	3621	33.23	0
2	3622	33.24	0
2	3623	33.25	0
2	3624	33.26	0
2	3625	33.27	0
2	3626	33.28	0
2	3627	33.29	0
2	3628	33.3	0
2	3629	33.31	0
2	3630	33.32	0
2	3631	33.33	0
2	3632	33.34	0
2	3633	33.35	0
2	3634	33.36	0
2	3635	33.37	0
2	3636	33.38	0
2	3637	33.39	0
2	3638	33.4	0
2	3639	33.41	0
2	3640	33.42	0
2	3641	33.43	0
2	3642	33.44	0
2	3643	33.45	0
2	3644	33.46	0
2	3645	33.47	0
2	3646	33.48	0
2	3647	33.49	0
2	3648	33.5	0
2	3649	33.51	0
2	3650	33.52	0
2	3651	33.53	0
2	3652	33.54	0
2	3653	33.55	0
2	3654	33.56	0
2	3655	33.57	0
2	3656	33.58	0
2	3657	33.59	0
2	3658	33.6	0
2	3659	33.61	0
2	3669	33.62	0
2	3670	33.63	0
2	3671	33.64	0
2	3672	33.65	0
2	3673	33.66	0
2	3674	33.67	0
2	3675	33.68	0
2	3676	33.69	0
2	3677	33.7	0
2	3678	33.71	0
2	3679	33.72	0
2	3680	33.73	0
2	3681	33.74	0
2	3682	33.75	0
2	3683	33.76	0
2	3684	33.77	0
2	3685	33.78	0
2	3686	33.79	0
2	3687	33.8	0
2	3688	33.81	0
2	3689	33.82	0
2	3690	33.83	0
2	3691	33.84	0
2	3692	33.85	0
2	3693	33.86	0
2	3694	33.87	0
2	3695	33.88	0
2	3696	33.89	0
2	3697	33.9	0
2	3698	33.91	0
2	3699	33.92	0
2	3700	33.93	0
2	3701	33.94	0
2	3702	33.95	0
2	3703	33.96	0
2	3704	33.97	0
2	3705	33.98	0
2	3706	33.99	0
2	3707	34	0
2	3708	34.01	0
2	3709	34.02	0
2	3710	34.03	0
2	3711	34.04	0
2	3712	34.05	0
2	3713	34.06	0
2	3714	34.07	0
2	3715	34.08	0
2	3716	34.09	0
2	3717	34.1	0
2	3718	34.11	0
2	3719	34.12	0
2	3720	34.13	0
2	3721	34.14	0
2	3722	34.15	0
2	3723	34.16	0
2	3724	34.17	0
2	3725	34.18	0
2	3726	34.19	0
2	3727	34.2	0
2	3728	34.21	0
2	3729	34.22	0
2	3730	34.23	0
2	3731	34.24	0
2	3732	34.25	0
2	3733	34.26	0
2	3734	34.27	0
2	3735	34.28	0
2	3736	34.29	0
2	3737	34.3	0
2	3738	34.31	0
2	3739	34.32	0
2	3740	34.33	0
2	3741	34.34	0
2	3742	34.35	0
2	3743	34.36	0
2	3744	34.37	0
2	3745	34.38	0
2	3746	34.39	0
2	3747	34.4	0
2	3748	34.41	0
2	3749	34.42	0
2	3750	34.43	0
2	3751	34.44	0
2	3752	34.45	0
2	3753	34.46	0
2	3754	34.47	0
2	3755	34.48	0
2	3756	34.49	0
2	3757	34.5	0
2	3758	34.51	0
2	3759	34.52	0
2	3760	34.53	0
2	3761	34.54	0
2	3762	34.55	0
2	3763	34.56	0
2	3764	34.57	0
2	3765	34.58	0
2	3766	34.59	0
2	3767	34.6	0
2	3768	34.61	0
2	3778	34.62	0
2	3779	34.63	0
2	3780	34.64	0
2	3781	34.65	0
2	3782	34.66	0
2	3783	34.67	0
2	3784	34.68	0
2	3785	34.69	0
2	3786	34.7	0
2	3787	34.71	0
2	3788	34.72	0
2	3789	34.73	0
2	3790	34.74	0
2	3791	34.75	0
2	3792	34.76	0
2	3793	34.77	0
2	3794	34.78	0
2	3795	34.79	0
2	3796	34.8	0
2	3797	34.81	0
2	3798	34.82	0
2	3799	34.83	0
2	3800	34.84	0
2	3801	34.85	0
2	3802	34.86	0
2	3803	34.87	0
2	3804	34.88	0
2	3805	34.89	0
2	3806	34.9	0
2	3807	34.91	0
2	3808	34.92	0
2	3809	34.93	0
2	3810	34.94	0
2	3811	34.95	0
2	3812	34.96	0
2	3813	34.97	0
2	3814	34.98	0
2	3815	34.99	0
2	3816	35	0
2	3817	35.01	0
2	3818	35.02	0
2	3819	35.03	0
2	3820	35.04	0
2	3821	35.05	0
2	3822	35.06	0
2	3823	35.07	0
2	3824	35.08	0
2	3825	35.09	0
2	3826	35.1	0
2	3827	35.11	0
2	3828	35.12	0
2	3829	35.13	0
2	3830	35.14	0
2	3831	35.15	0
2	3832	35.16	0
2	3833	35.17	0
2	3834	35.18	0
2	3835	35.19	0
2	3836	35.2	0
2	3837	35.21	0
2	3838	35.22	0
2	3839	35.23	0
2	3840	35.24	0
2	3841	35.25	0
2	3842	35.26	0
2	3843	35.27	0
2	3844	35.28	0
2	3845	35.29	0
2	3846	35.3	0
2	3847	35.31	0
2	3848	35.32	0
2	3849	35.33	0
2	3850	35.34	0
2	3851	35.35	0
2	3852	35.36	0
2	3853	35.37	0
2	3854	35.38	0
2	3855	35.39	0
2	3856	35.4	0
2	3857	35.41	0
2	3858	35.42	0
2	3859	35.43	0
2	3860	35.44	0
2	3861	35.45	0
2	3862	35.46	0
2	3863	35.47	0
2	3864	35.48	0
2	3865	35.49	0
2	3866	35.5	0
2	3867	35.51	0
2	3868	35.52	0
2	3869	35.53	0
2	3870	35.54	0
2	3871	35.55	0
2	3872	35.56	0
2	3873	35.57	0
2	3874	35.58	0
2	3875	35.59	0
2	3876	35.6	0
2	3877	35.61	0
2	3887	35.62	0
2	3888	35.63	0
2	3889	35.64	0
2	3890	35.65	0
2	3891	35.66	0
2	3892	35.67	0
2	3893	35.68	0
2	3894	35.69	0
2	3895	35.7	0
2	3896	35.71	0
2	3897	35.72	0
2	3898	35.73	0
2	3899	35.74	0
2	3900	35.75	0
2	3901	35.76	0
2	3902	35.77	0
2	3903	35.78	0
2	3904	35.79	0
2	3905	35.8	0
2	3906	35.81	0
2	3907	35.82	0
2	3908	35.83	0
2	3909	35.84	0
2	3910	35.85	0
2	3911	35.86	0
2	3912	35.87	0
2	3913	35.88	0
2	3914	35.89	0
2	3915	35.9	0
2	3916	35.91	0
2	3917	35.92	0
2	3918	35.93	0
2	3919	35.94	0
2	3920	35.95	0
2	3921	35.96	0
2	3922	35.97	0
2	3923	35.98	0
2	3924	35.99	0
2	3925	36	0
2	3926	36.01	0
2	3927	36.02	0
2	3928	36.03	0
2	3929	36.04	0
2	3930	36.05	0
2	3931	36.06	0
2	3932	36.07	0
2	3933	36.08	0
2	3934	36.09	0
2	3935	36.1	0
2	3936	36.11	0
2	3937	36.12	0
2	3938	36.13	0
2	3939	36.14	0
2	3940	36.15	0
2	3941	36.16	0
2	3942	36.17	0
2	3943	36.18	0
2	3944	36.19	0
2	3945	36.2	0
2	3946	36.21	0
2	3947	36.22	0
2	3948	36.23	0
2	3949	36.24	0
2	3950	36.25	0
2	3951	36.26	0
2	3952	36.27	0
2	3953	36.28	0
2	3954	36.29	0
2	3955	36.3	0
2	3956	36.31	0
2	3957	36.32	0
2	3958	36.33	0
2	3959	36.34	0
2	3960	36.35	0
2	3961	36.36	0
2	3962	36.37	0
2	3963	36.38	0
2	3964	36.39	0
2	3965	36.4	0
2	3966	36.41	0
2	3967	36.42	0
2	3968	36.43	0
2	3969	36.44	0
2	3970	36.45	0
2	3971	36.46	0
2	3972	36.47	0
2	3973	36.48	0
2	3974	36.49	0
2	3975	36.5	0
2	3976	36.51	0
2	3977	36.52	0
2	3978	36.53	0
2	3979	36.54	0
2	3980	36.55	0
2	3981	36.56	0
2	3982	36.57	0
2	3983	36.58	0
2	3984	36.59	0
2	3985	36.6	0
2	3986	36.61	0
2	3996	36.62	0
2	3997	36.63	0
2	3998	36.64	0
2	3999	36.65	0
2	4000	36.66	0
2	4001	36.67	0
2	4002	36.68	0
2	4003	36.69	0
2	4004	36.7	0
2	4005	36.71	0
2	4006	36.72	0
2	4007	36.73	0
2	4008	36.74	0
2	4009	36.75	0
2	4010	36.76	0
2	4011	36.77	0
2	4012	36.78	0
2	4013	36.79	0
2	4014	36.8	0
2	4015	36.81	0
2	4016	36.82	0
2	4017	36.83	0
2	4018	36.84	0
2	4019	36.85	0
2	4020	36.86	0
2	4021	36.87	0
2	4022	36.88	0
2	4023	36.89	0
2	4024	36.9	0
2	4025	36.91	0
2	4026	36.92	0
2	4027	36.93	0
2	4028	36.94	0
2	4029	36.95	0
2	4030	36.96	0
2	4031	36.97	0
2	4032	36.98	0
2	4033	36.99	0
2	4034	37	0
2	4035	37.01	0
2	4036	37.02	0
2	4037	37.03	0
2	4038	37.04	0
2	4039	37.05	0
2	4040	37.06	0
2	4041	37.07	0
2	4042	37.08	0
2	4043	37.09	0
2	4044	37.1	0
2	4045	37.11	0
2	4046	37.12	0
2	4047	37.13	0
2	4048	37.14	0
2	4049	37.15	0
2	4050	37.16	0
2	4051	37.17	0
2	4052	37.18	0
2	4053	37.19	0
2	4054	37.2	0
2	4055	37.21	0
2	4056	37.22	0
2	4057	37.23	0
2	4058	37.24	0
2	4059	37.25	0
2	4060	37.26	0
2	4061	37.27	0
2	4062	37.28	0
2	4063	37.29	0
2	4064	37.3	0
2	4065	37.31	0
2	4066	37.32	0
2	4067	37.33	0
2	4068	37.34	0
2	4069	37.35	0
2	4070	37.36	0
2	4071	37.37	0
2	4072	37.38	0
2	4073	37.39	0
2	4074	37.4	0
2	4075	37.41	0
2	4076	37.42	0
2	4077	37.43	0
2	4078	37.44	0
2	4079	37.45	0
2	4080	37.46	0
2	4081	37.47	0
2	4082	37.48	0
2	4083	37.49	0
2	4084	37.5	0
2	4085	37.51	0
2	4086	37.52	0
2	4087	37.53	0
2	4088	37.54	0
2	4089	37.55	0
2	4090	37.56	0
2	4091	37.57	0
2	4092	37.58	0
2	4093	37.59	0
2	4094	37.6	0
2	4095	37.61	0
2	4105	37.62	0
2	4106	37.63	0
2	4107	37.64	0
2	4108	37.65	0
2	4109	37.66	0
2	4110	37.67	0
2	4111	37.68	0
2	4112	37.69	0
2	4113	37.7	0
2	4114	37.71	0
2	4115	37.72	0
2	4116	37.73	0
2	4117	37.74	0
2	4118	37.75	0
2	4119	37.76	0
2	4120	37.77	0
2	4121	37.78	0
2	4122	37.79	0
2	4123	37.8	0
2	4124	37.81	0
2	4125	37.82	0
2	4126	37.83	0
2	4127	37.84	0
2	4128	37.85	0
2	4129	37.86	0
2	4130	37.87	0
2	4131	37.88	0
2	4132	37.89	0
2	4133	37.9	0
2	4134	37.91	0
2	4135	37.92	0
2	4136	37.93	0
2	4137	37.94	0
2	4138	37.95	0
2	4139	37.96	0
2	4140	37.97	0
2	4141	37.98	0
2	4142	37.99	0
2	4143	38	0
2	4144	38.01	0
2	4145	38.02	0
2	4146	38.03	0
2	4147	38.04	0
2	4148	38.05	0
2	4149	38.06	0
2	4150	38.07	0
2	4151	38.08	0
2	4152	38.09	0
2	4153	38.1	0
2	4154	38.11	0
2	4155	38.12	0
2	4156	38.13	0
2	4157	38.14	0
2	4158	38.15	0
2	4159	38.16	0
2	4160	38.17	0
2	4161	38.18	0
2	4162	38.19	0
2	4163	38.2	0
2	4164	38.21	0
2	4165	38.22	0
2	4166	38.23	0
2	4167	38.24	0
2	4168	38.25	0
2	4169	38.26	0
2	4170	38.27	0
2	4171	38.28	0
2	4172	38.29	0
2	4173	38.3	0
2	4174	38.31	0
2	4175	38.32	0
2	4176	38.33	0
2	4177	38.34	0
2	4178	38.35	0
2	4179	38.36	0
2	4180	38.37	0
2	4181	38.38	0
2	4182	38.39	0
2	4183	38.4	0
2	4184	38.41	0
2	4185	38.42	0
2	4186	38.43	0
2	4187	38.44	0
2	4188	38.45	0
2	4189	38.46	0
2	4190	38.47	0
2	4191	38.48	0
2	4192	38.49	0
2	4193	38.5	0
2	4194	38.51	0
2	4195	38.52	0
2	4196	38.53	0
2	4197	38.54	0
2	4198	38.55	0
2	4199	38.56	0
2	4200	38.57	0
2	4201	38.58	0
2	4202	38.59	0
2	4203	38.6	0
2	4204	38.61	0
2	4214	38.62	0
2	4215	38.63	0
2	4216	38.64	0
2	4217	38.65	0
2	4218	38.66	0
2	4219	38.67	0
2	4220	38.68	0
2	4221	38.69	0
2	4222	38.7	0
2	4223	38.71	0
2	4224	38.72	0
2	4225	38.73	0
2	4226	38.74	0
2	4227	38.75	0
2	4228	38.76	0
2	4229	38.77	0
2	4230	38.78	0
2	4231	38.79	0
2	4232	38.8	0
2	4233	38.81	0
2	4234	38.82	0
2	4235	38.83	0
2	4236	38.84	0
2	4237	38.85	0
2	4238	38.86	0
2	4239	38.87	0
2	4240	38.88	0
2	4241	38.89	0
2	4242	38.9	0
2	4243	38.91	0
2	4244	38.92	0
2	4245	38.93	0
2	4246	38.94	0
2	4247	38.95	0
2	4248	38.96	0
2	4249	38.97	0
2	4250	38.98	0
2	4251	38.99	0
2	4252	39	0
2	4253	39.01	0
2	4254	39.02	0
2	4255	39.03	0
2	4256	39.04	0
2	4257	39.05	0
2	4258	39.06	0
2	4259	39.07	0
2	4260	39.08	0
2	4261	39.09	0
2	4262	39.1	0
2	4263	39.11	0
2	4264	39.12	0
2	4265	39.13	0
2	4266	39.14	0
2	4267	39.15	0
2	4268	39.16	0
2	4269	39.17	0
2	4270	39.18	0
2	4271	39.19	0
2	4272	39.2	0
2	4273	39.21	0
2	4274	39.22	0
2	4275	39.23	0
2	4276	39.24	0
2	4277	39.25	0
2	4278	39.26	0
2	4279	39.27	0
2	4280	39.28	0
2	4281	39.29	0
2	4282	39.3	0
2	4283	39.31	0
2	4284	39.32	0
2	4285	39.33	0
2	4286	39.34	0
2	4287	39.35	0
2	4288	39.36	0
2	4289	39.37	0
2	4290	39.38	0
2	4291	39.39	0
2	4292	39.4	0
2	4293	39.41	0
2	4294	39.42	0
2	4295	39.43	0
2	4296	39.44	0
2	4297	39.45	0
2	4298	39.46	0
2	4299	39.47	0
2	4300	39.48	0
2	4301	39.49	0
2	4302	39.5	0
2	4303	39.51	0
2	4304	39.52	0
2	4305	39.53	0
2	4306	39.54	0
2	4307	39.55	0
2	4308	39.56	0
2	4309	39.57	0
2	4310	39.58	0
2	4311	39.59	0
2	4312	39.6	0
2	4313	39.61	0
2	4323	39.62	0
2	4324	39.63	0
2	4325	39.64	0
2	4326	39.65	0
2	4327	39.66	0
2	4328	39.67	0
2	4329	39.68	0
2	4330	39.69	0
2	4331	39.7	0
2	4332	39.71	0
2	4333	39.72	0
2	4334	39.73	0
2	4335	39.74	0
2	4336	39.75	0
2	4337	39.76	0
2	4338	39.77	0
2	4339	39.78	0
2	4340	39.79	0
2	4341	39.8	0
2	4342	39.81	0
2	4343	39.82	0
2	4344	39.83	0
2	4345	39.84	0
2	4346	39.85	0
2	4347	39.86	0
2	4348	39.87	0
2	4349	39.88	0
2	4350	39.89	0
2	4351	39.9	0
2	4352	39.91	0
2	4353	39.92	0
2	4354	39.93	0
2	4355	39.94	0
2	4356	39.95	0
2	4357	39.96	0
2	4358	39.97	0
2	4359	39.98	0
2	4360	39.99	0
2	4361	40	0
2	4362	40.01	0
2	4363	40.02	0
2	4364	40.03	0
2	4365	40.04	0
2	4366	40.05	0
2	4367	40.06	0
2	4368	40.07	0
2	4369	40.08	0
2	4370	40.09	0
2	4371	40.1	0
2	4372	40.11	0
2	4373	40.12	0
2	4374	40.13	0
2	4375	40.14	0
2	4376	40.15	0
2	4377	40.16	0
2	4378	40.17	0
2	4379	40.18	0
2	4380	40.19	0
2	4381	40.2	0
2	4382	40.21	0
2	4383	40.22	0
2	4384	40.23	0
2	4385	40.24	0
2	4386	40.25	0
2	4387	40.26	0
2	4388	40.27	0
2	4389	40.28	0
2	4390	40.29	0
2	4391	40.3	0
2	4392	40.31	0
2	4393	40.32	0
2	4394	40.33	0
2	4395	40.34	0
2	4396	40.35	0
2	4397	40.36	0
2	4398	40.37	0
2	4399	40.38	0
2	4400	40.39	0
2	4401	40.4	0
2	4402	40.41	0
2	4403	40.42	0
2	4404	40.43	0
2	4405	40.44	0
2	4406	40.45	0
2	4407	40.46	0
2	4408	40.47	0
2	4409	40.48	0
2	4410	40.49	0
2	4411	40.5	0
2	4412	40.51	0
2	4413	40.52	0
2	4414	40.53	0
2	4415	40.54	0
2	4416	40.55	0
2	4417	40.56	0
2	4418	40.57	0
2	4419	40.58	0
2	4420	40.59	0
2	4421	40.6	0
2	4422	40.61	0
2	4432	40.62	0
2	4433	40.63	0
2	4434	40.64	0
2	4435	40.65	0
2	4436	40.66	0
2	4437	40.67	0
2	4438	40.68	0
2	4439	40.69	0
2	4440	40.7	0
2	4441	40.71	0
2	4442	40.72	0
2	4443	40.73	0
2	4444	40.74	0
2	4445	40.75	0
2	4446	40.76	0
2	4447	40.77	0
2	4448	40.78	0
2	4449	40.79	0
2	4450	40.8	0
2	4451	40.81	0
2	4452	40.82	0
2	4453	40.83	0
2	4454	40.84	0
2	4455	40.85	0
2	4456	40.86	0
2	4457	40.87	0
2	4458	40.88	0
2	4459	40.89	0
2	4460	40.9	0
2	4461	40.91	0
2	4462	40.92	0
2	4463	40.93	0
2	4464	40.94	0
2	4465	40.95	0
2	4466	40.96	0
2	4467	40.97	0
2	4468	40.98	0
2	4469	40.99	0
2	4470	41	0
2	4471	41.01	0
2	4472	41.02	0
2	4473	41.03	0
2	4474	41.04	0
2	4475	41.05	0
2	4476	41.06	0
2	4477	41.07	0
2	4478	41.08	0
2	4479	41.09	0
2	4480	41.1	0
2	4481	41.11	0
2	4482	41.12	0
2	4483	41.13	0
2	4484	41.14	0
2	4485	41.15	0
2	4486	41.16	0
2	4487	41.17	0
2	4488	41.18	0
2	4489	41.19	0
2	4490	41.2	0
2	4491	41.21	0
2	4492	41.22	0
2	4493	41.23	0
2	4494	41.24	0
2	4495	41.25	0
2	4496	41.26	0
2	4497	41.27	0
2	4498	41.28	0
2	4499	41.29	0
2	4500	41.3	0
2	4501	41.31	0
2	4502	41.32	0
2	4503	41.33	0
2	4504	41.34	0
2	4505	41.35	0
2	4506	41.36	0
2	4507	41.37	0
2	4508	41.38	0
2	4509	41.39	0
2	4510	41.4	0
2	4511	41.41	0
2	4512	41.42	0
2	4513	41.43	0
2	4514	41.44	0
2	4515	41.45	0
2	4516	41.46	0
2	4517	41.47	0
2	4518	41.48	0
2	4519	41.49	0
2	4520	41.5	0
2	4521	41.51	0
2	4522	41.52	0
2	4523	41.53	0
2	4524	41.54	0
2	4525	41.55	0
2	4526	41.56	0
2	4527	41.57	0
2	4528	41.58	0
2	4529	41.59	0
2	4530	41.6	0
2	4531	41.61	0
2	4541	41.62	0
2	4542	41.63	0
2	4543	41.64	0
2	4544	41.65	0
2	4545	41.66	0
2	4546	41.67	0
2	4547	41.68	0
2	4548	41.69	0
2	4549	41.7	0
2	4550	41.71	0
2	4551	41.72	0
2	4552	41.73	0
2	4553	41.74	0
2	4554	41.75	0
2	4555	41.76	0
2	4556	41.77	0
2	4557	41.78	0
2	4558	41.79	0
2	4559	41.8	0
2	4560	41.81	0
2	4561	41.82	0
2	4562	41.83	0
2	4563	41.84	0
2	4564	41.85	0
2	4565	41.86	0
2	4566	41.87	0
2	4567	41.88	0
2	4568	41.89	0
2	4569	41.9	0
2	4570	41.91	0
2	4571	41.92	0
2	4572	41.93	0
2	4573	41.94	0
2	4574	41.95	0
2	4575	41.96	0
2	4576	41.97	0
2	4577	41.98	0
2	4578	41.99	0
2	4579	42	0
2	4580	42.01	0
2	4581	42.02	0
2	4582	42.03	0
2	4583	42.04	0
2	4584	42.05	0
2	4585	42.06	0
2	4586	42.07	0
2	4587	42.08	0
2	4588	42.09	0
2	4589	42.1	0
2	4590	42.11	0
2	4591	42.12	0
2	4592	42.13	0
2	4593	42.14	0
2	4594	42.15	0
2	4595	42.16	0
2	4596	42.17	0
2	4597	42.18	0
2	4598	42.19	0
2	4599	42.2	0
2	4600	42.21	0
2	4601	42.22	0
2	4602	42.23	0
2	4603	42.24	0
2	4604	42.25	0
2	4605	42.26	0
2	4606	42.27	0
2	4607	42.28	0
2	4608	42.29	0
2	4609	42.3	0
2	4610	42.31	0
2	4611	42.32	0
2	4612	42.33	0
2	4613	42.34	0
2	4614	42.35	0
2	4615	42.36	0
2	4616	42.37	0
2	4617	42.38	0
2	4618	42.39	0
2	4619	42.4	0
2	4620	42.41	0
2	4621	42.42	0
2	4622	42.43	0
2	4623	42.44	0
2	4624	42.45	0
2	4625	42.46	0
2	4626	42.47	0
2	4627	42.48	0
2	4628	42.49	0
2	4629	42.5	0
2	4630	42.51	0
2	4631	42.52	0
2	4632	42.53	0
2	4633	42.54	0
2	4634	42.55	0
2	4635	42.56	0
2	4636	42.57	0
2	4637	42.58	0
2	4638	42.59	0
2	4639	42.6	0
2	4640	42.61	0
2	4650	42.62	0
2	4651	42.63	0
2	4652	42.64	0
2	4653	42.65	0
2	4654	42.66	0
2	4655	42.67	0
2	4656	42.68	0
2	4657	42.69	0
2	4658	42.7	0
2	4659	42.71	0
2	4660	42.72	0
2	4661	42.73	0
2	4662	42.74	0
2	4663	42.75	0
2	4664	42.76	0
2	4665	42.77	0
2	4666	42.78	0
2	4667	42.79	0
2	4668	42.8	0
2	4669	42.81	0
2	4670	42.82	0
2	4671	42.83	0
2	4672	42.84	0
2	4673	42.85	0
2	4674	42.86	0
2	4675	42.87	0
2	4676	42.88	0
2	4677	42.89	0
2	4678	42.9	0
2	4679	42.91	0
2	4680	42.92	0
2	4681	42.93	0
2	4682	42.94	0
2	4683	42.95	0
2	4684	42.96	0
2	4685	42.97	0
2	4686	42.98	0
2	4687	42.99	0
2	4688	43	0
2	4689	43.01	0
2	4690	43.02	0
2	4691	43.03	0
2	4692	43.04	0
2	4693	43.05	0
2	4694	43.06	0
2	4695	43.07	0
2	4696	43.08	0
2	4697	43.09	0
2	4698	43.1	0
2	4699	43.11	0
2	4700	43.12	0
2	4701	43.13	0
2	4702	43.14	0
2	4703	43.15	0
2	4704	43.16	0
2	4705	43.17	0
2	4706	43.18	0
2	4707	43.19	0
2	4708	43.2	0
2	4709	43.21	0
2	4710	43.22	0
2	4711	43.23	0
2	4712	43.24	0
2	4713	43.25	0
2	4714	43.26	0
2	4715	43.27	0
2	4716	43.28	0
2	4717	43.29	0
2	4718	43.3	0
2	4719	43.31	0
2	4720	43.32	0
2	4721	43.33	0
2	4722	43.34	0
2	4723	43.35	0
2	4724	43.36	0
2	4725	43.37	0
2	4726	43.38	0
2	4727	43.39	0
2	4728	43.4	0
2	4729	43.41	0
2	4730	43.42	0
2	4731	43.43	0
2	4732	43.44	0
2	4733	43.45	0
2	4734	43.46	0
2	4735	43.47	0
2	4736	43.48	0
2	4737	43.49	0
2	4738	43.5	0
2	4739	43.51	0
2	4740	43.52	0
2	4741	43.53	0
2	4742	43.54	0
2	4743	43.55	0
2	4744	43.56	0
2	4745	43.57	0
2	4746	43.58	0
2	4747	43.59	0
2	4748	43.6	0
2	4749	43.61	0
2	4759	43.62	0
2	4760	43.63	0
2	4761	43.64	0
2	4762	43.65	0
2	4763	43.66	0
2	4764	43.67	0
2	4765	43.68	0
2	4766	43.69	0
2	4767	43.7	0
2	4768	43.71	0
2	4769	43.72	0
2	4770	43.73	0
2	4771	43.74	0
2	4772	43.75	0
2	4773	43.76	0
2	4774	43.77	0
2	4775	43.78	0
2	4776	43.79	0
2	4777	43.8	0
2	4778	43.81	0
2	4779	43.82	0
2	4780	43.83	0
2	4781	43.84	0
2	4782	43.85	0
2	4783	43.86	0
2	4784	43.87	0
2	4785	43.88	0
2	4786	43.89	0
2	4787	43.9	0
2	4788	43.91	0
2	4789	43.92	0
2	4790	43.93	0
2	4791	43.94	0
2	4792	43.95	0
2	4793	43.96	0
2	4794	43.97	0
2	4795	43.98	0
2	4796	43.99	0
2	4797	44	0
2	4798	44.01	0
2	4799	44.02	0
2	4800	44.03	0
2	4801	44.04	0
2	4802	44.05	0
2	4803	44.06	0
2	4804	44.07	0
2	4805	44.08	0
2	4806	44.09	0
2	4807	44.1	0
2	4808	44.11	0
2	4809	44.12	0
2	4810	44.13	0
2	4811	44.14	0
2	4812	44.15	0
2	4813	44.16	0
2	4814	44.17	0
2	4815	44.18	0
2	4816	44.19	0
2	4817	44.2	0
2	4818	44.21	0
2	4819	44.22	0
2	4820	44.23	0
2	4821	44.24	0
2	4822	44.25	0
2	4823	44.26	0
2	4824	44.27	0
2	4825	44.28	0
2	4826	44.29	0
2	4827	44.3	0
2	4828	44.31	0
2	4829	44.32	0
2	4830	44.33	0
2	4831	44.34	0
2	4832	44.35	0
2	4833	44.36	0
2	4834	44.37	0
2	4835	44.38	0
2	4836	44.39	0
2	4837	44.4	0
2	4838	44.41	0
2	4839	44.42	0
2	4840	44.43	0
2	4841	44.44	0
2	4842	44.45	0
2	4843	44.46	0
2	4844	44.47	0
2	4845	44.48	0
2	4846	44.49	0
2	4847	44.5	0
2	4848	44.51	0
2	4849	44.52	0
2	4850	44.53	0
2	4851	44.54	0
2	4852	44.55	0
2	4853	44.56	0
2	4854	44.57	0
2	4855	44.58	0
2	4856	44.59	0
2	4857	44.6	0
2	4858	44.61	0
2	4868	44.62	0
2	4869	44.63	0
2	4870	44.64	0
2	4871	44.65	0
2	4872	44.66	0
2	4873	44.67	0
2	4874	44.68	0
2	4875	44.69	0
2	4876	44.7	0
2	4877	44.71	0
2	4878	44.72	0
2	4879	44.73	0
2	4880	44.74	0
2	4881	44.75	0
2	4882	44.76	0
2	4883	44.77	0
2	4884	44.78	0
2	4885	44.79	0
2	4886	44.8	0
2	4887	44.81	0
2	4888	44.82	0
2	4889	44.83	0
2	4890	44.84	0
2	4891	44.85	0
2	4892	44.86	0
2	4893	44.87	0
2	4894	44.88	0
2	4895	44.89	0
2	4896	44.9	0
2	4897	44.91	0
2	4898	44.92	0
2	4899	44.93	0
2	4900	44.94	0
2	4901	44.95	0
2	4902	44.96	0
2	4903	44.97	0
2	4904	44.98	0
2	4905	44.99	0
2	4906	45	0
2	4907	45.01	0
2	4908	45.02	0
2	4909	45.03	0
2	4910	45.04	0
2	4911	45.05	0
2	4912	45.06	0
2	4913	45.07	0
2	4914	45.08	0
2	4915	45.09	0
2	4916	45.1	0
2	4917	45.11	0
2	4918	45.12	0
2	4919	45.13	0
2	4920	45.14	0
2	4921	45.15	0
2	4922	45.16	0
2	4923	45.17	0
2	4924	45.18	0
2	4925	45.19	0
2	4926	45.2	0
2	4927	45.21	0
2	4928	45.22	0
2	4929	45.23	0
2	4930	45.24	0
2	4931	45.25	0
2	4932	45.26	0
2	4933	45.27	0
2	4934	45.28	0
2	4935	45.29	0
2	4936	45.3	0
2	4937	45.31	0
2	4938	45.32	0
2	4939	45.33	0
2	4940	45.34	0
2	4941	45.35	0
2	4942	45.36	0
2	4943	45.37	0
2	4944	45.38	0
2	4945	45.39	0
2	4946	45.4	0
2	4947	45.41	0
2	4948	45.42	0
2	4949	45.43	0
2	4950	45.44	0
2	4951	45.45	0
2	4952	45.46	0
2	4953	45.47	0
2	4954	45.48	0
2	4955	45.49	0
2	4956	45.5	0
2	4957	45.51	0
2	4958	45.52	0
2	4959	45.53	0
2	4960	45.54	0
2	4961	45.55	0
2	4962	45.56	0
2	4963	45.57	0
2	4964	45.58	0
2	4965	45.59	0
2	4966	45.6	0
2	4967	45.61	0
2	4977	45.62	0
2	4978	45.63	0
2	4979	45.64	0
2	4980	45.65	0
2	4981	45.66	0
2	4982	45.67	0
2	4983	45.68	0
2	4984	45.69	0
2	4985	45.7	0
2	4986	45.71	0
2	4987	45.72	0
2	4988	45.73	0
2	4989	45.74	0
2	4990	45.75	0
2	4991	45.76	0
2	4992	45.77	0
2	4993	45.78	0
2	4994	45.79	0
2	4995	45.8	0
2	4996	45.81	0
2	4997	45.82	0
2	4998	45.83	0
2	4999	45.84	0
2	5000	45.85	0
2	5001	45.86	0
2	5002	45.87	0
2	5003	45.88	0
2	5004	45.89	0
2	5005	45.9	0
2	5006	45.91	0
2	5007	45.92	0
2	5008	45.93	0
2	5009	45.94	0
2	5010	45.95	0
2	5011	45.96	0
2	5012	45.97	0
2	5013	45.98	0
2	5014	45.99	0
2	5015	46	0
2	5016	46.01	0
2	5017	46.02	0
2	5018	46.03	0
2	5019	46.04	0
2	5020	46.05	0
2	5021	46.06	0
2	5022	46.07	0
2	5023	46.08	0
2	5024	46.09	0
2	5025	46.1	0
2	5026	46.11	0
2	5027	46.12	0
2	5028	46.13	0
2	5029	46.14	0
2	5030	46.15	0
2	5031	46.16	0
2	5032	46.17	0
2	5033	46.18	0
2	5034	46.19	0
2	5035	46.2	0
2	5036	46.21	0
2	5037	46.22	0
2	5038	46.23	0
2	5039	46.24	0
2	5040	46.25	0
2	5041	46.26	0
2	5042	46.27	0
2	5043	46.28	0
2	5044	46.29	0
2	5045	46.3	0
2	5046	46.31	0
2	5047	46.32	0
2	5048	46.33	0
2	5049	46.34	0
2	5050	46.35	0
2	5051	46.36	0
2	5052	46.37	0
2	5053	46.38	0
2	5054	46.39	0
2	5055	46.4	0
2	5056	46.41	0
2	5057	46.42	0
2	5058	46.43	0
2	5059	46.44	0
2	5060	46.45	0
2	5061	46.46	0
2	5062	46.47	0
2	5063	46.48	0
2	5064	46.49	0
2	5065	46.5	0
2	5066	46.51	0
2	5067	46.52	0
2	5068	46.53	0
2	5069	46.54	0
2	5070	46.55	0
2	5071	46.56	0
2	5072	46.57	0
2	5073	46.58	0
2	5074	46.59	0
2	5075	46.6	0
2	5076	46.61	0
2	5086	46.62	0
2	5087	46.63	0
2	5088	46.64	0
2	5089	46.65	0
2	5090	46.66	0
2	5091	46.67	0
2	5092	46.68	0
2	5093	46.69	0
2	5094	46.7	0
2	5095	46.71	0
2	5096	46.72	0
2	5097	46.73	0
2	5098	46.74	0
2	5099	46.75	0
2	5100	46.76	0
2	5101	46.77	0
2	5102	46.78	0
2	5103	46.79	0
2	5104	46.8	0
2	5105	46.81	0
2	5106	46.82	0
2	5107	46.83	0
2	5108	46.84	0
2	5109	46.85	0
2	5110	46.86	0
2	5111	46.87	0
2	5112	46.88	0
2	5113	46.89	0
2	5114	46.9	0
2	5115	46.91	0
2	5116	46.92	0
2	5117	46.93	0
2	5118	46.94	0
2	5119	46.95	0
2	5120	46.96	0
2	5121	46.97	0
2	5122	46.98	0
2	5123	46.99	0
2	5124	47	0
2	5125	47.01	0
2	5126	47.02	0
2	5127	47.03	0
2	5128	47.04	0
2	5129	47.05	0
2	5130	47.06	0
2	5131	47.07	0
2	5132	47.08	0
2	5133	47.09	0
2	5134	47.1	0
2	5135	47.11	0
2	5136	47.12	0
2	5137	47.13	0
2	5138	47.14	0
2	5139	47.15	0
2	5140	47.16	0
2	5141	47.17	0
2	5142	47.18	0
2	5143	47.19	0
2	5144	47.2	0
2	5145	47.21	0
2	5146	47.22	0
2	5147	47.23	0
2	5148	47.24	0
2	5149	47.25	0
2	5150	47.26	0
2	5151	47.27	0
2	5152	47.28	0
2	5153	47.29	0
2	5154	47.3	0
2	5155	47.31	0
2	5156	47.32	0
2	5157	47.33	0
2	5158	47.34	0
2	5159	47.35	0
2	5160	47.36	0
2	5161	47.37	0
2	5162	47.38	0
2	5163	47.39	0
2	5164	47.4	0
2	5165	47.41	0
2	5166	47.42	0
2	5167	47.43	0
2	5168	47.44	0
2	5169	47.45	0
2	5170	47.46	0
2	5171	47.47	0
2	5172	47.48	0
2	5173	47.49	0
2	5174	47.5	0
2	5175	47.51	0
2	5176	47.52	0
2	5177	47.53	0
2	5178	47.54	0
2	5179	47.55	0
2	5180	47.56	0
2	5181	47.57	0
2	5182	47.58	0
2	5183	47.59	0
2	5184	47.6	0
2	5185	47.61	0
2	5195	47.62	0
2	5196	47.63	0
2	5197	47.64	0
2	5198	47.65	0
2	5199	47.66	0
2	5200	47.67	0
2	5201	47.68	0
2	5202	47.69	0
2	5203	47.7	0
2	5204	47.71	0
2	5205	47.72	0
2	5206	47.73	0
2	5207	47.74	0
2	5208	47.75	0
2	5209	47.76	0
2	5210	47.77	0
2	5211	47.78	0
2	5212	47.79	0
2	5213	47.8	0
2	5214	47.81	0
2	5215	47.82	0
2	5216	47.83	0
2	5217	47.84	0
2	5218	47.85	0
2	5219	47.86	0
2	5220	47.87	0
2	5221	47.88	0
2	5222	47.89	0
2	5223	47.9	0
2	5224	47.91	0
2	5225	47.92	0
2	5226	47.93	0
2	5227	47.94	0
2	5228	47.95	0
2	5229	47.96	0
2	5230	47.97	0
2	5231	47.98	0
2	5232	47.99	0
2	5233	48	0
2	5234	48.01	0
2	5235	48.02	0
2	5236	48.03	0
2	5237	48.04	0
2	5238	48.05	0
2	5239	48.06	0
2	5240	48.07	0
2	5241	48.08	0
2	5242	48.09	0
2	5243	48.1	0
2	5244	48.11	0
2	5245	48.12	0
2	5246	48.13	0
2	5247	48.14	0
2	5248	48.15	0
2	5249	48.16	0
2	5250	48.17	0
2	5251	48.18	0
2	5252	48.19	0
2	5253	48.2	0
2	5254	48.21	0
2	5255	48.22	0
2	5256	48.23	0
2	5257	48.24	0
2	5258	48.25	0
2	5259	48.26	0
2	5260	48.27	0
2	5261	48.28	0
2	5262	48.29	0
2	5263	48.3	0
2	5264	48.31	0
2	5265	48.32	0
2	5266	48.33	0
2	5267	48.34	0
2	5268	48.35	0
2	5269	48.36	0
2	5270	48.37	0
2	5271	48.38	0
2	5272	48.39	0
2	5273	48.4	0
2	5274	48.41	0
2	5275	48.42	0
2	5276	48.43	0
2	5277	48.44	0
2	5278	48.45	0
2	5279	48.46	0
2	5280	48.47	0
2	5281	48.48	0
2	5282	48.49	0
2	5283	48.5	0
2	5284	48.51	0
2	5285	48.52	0
2	5286	48.53	0
2	5287	48.54	0
2	5288	48.55	0
2	5289	48.56	0
2	5290	48.57	0
2	5291	48.58	0
2	5292	48.59	0
2	5293	48.6	0
2	5294	48.61	0
2	5304	48.62	0
2	5305	48.63	0
2	5306	48.64	0
2	5307	48.65	0
2	5308	48.66	0
2	5309	48.67	0
2	5310	48.68	0
2	5311	48.69	0
2	5312	48.7	0
2	5313	48.71	0
2	5314	48.72	0
2	5315	48.73	0
2	5316	48.74	0
2	5317	48.75	0
2	5318	48.76	0
2	5319	48.77	0
2	5320	48.78	0
2	5321	48.79	0
2	5322	48.8	0
2	5323	48.81	0
2	5324	48.82	0
2	5325	48.83	0
2	5326	48.84	0
2	5327	48.85	0
2	5328	48.86	0
2	5329	48.87	0
2	5330	48.88	0
2	5331	48.89	0
2	5332	48.9	0
2	5333	48.91	0
2	5334	48.92	0
2	5335	48.93	0
2	5336	48.94	0
2	5337	48.95	0
2	5338	48.96	0
2	5339	48.97	0
2	5340	48.98	0
2	5341	48.99	0
2	5342	49	0
2	5343	49.01	0
2	5344	49.02	0
2	5345	49.03	0
2	5346	49.04	0
2	5347	49.05	0
2	5348	49.06	0
2	5349	49.07	0
2	5350	49.08	0
2	5351	49.09	0
2	5352	49.1	0
2	5353	49.11	0
2	5354	49.12	0
2	5355	49.13	0
2	5356	49.14	0
2	5357	49.15	0
2	5358	49.16	0
2	5359	49.17	0
2	5360	49.18	0
2	5361	49.19	0
2	5362	49.2	0
2	5363	49.21	0
2	5364	49.22	0
2	5365	49.23	0
2	5366	49.24	0
2	5367	49.25	0
2	5368	49.26	0
2	5369	49.27	0
2	5370	49.28	0
2	5371	49.29	0
2	5372	49.3	0
2	5373	49.31	0
2	5374	49.32	0
2	5375	49.33	0
2	5376	49.34	0
2	5377	49.35	0
2	5378	49.36	0
2	5379	49.37	0
2	5380	49.38	0
2	5381	49.39	0
2	5382	49.4	0
2	5383	49.41	0
2	5384	49.42	0
2	5385	49.43	0
2	5386	49.44	0
2	5387	49.45	0
2	5388	49.46	0
2	5389	49.47	0
2	5390	49.48	0
2	5391	49.49	0
2	5392	49.5	0
2	5393	49.51	0
2	5394	49.52	0
2	5395	49.53	0
2	5396	49.54	0
2	5397	49.55	0
2	5398	49.56	0
2	5399	49.57	0
2	5400	49.58	0
2	5401	49.59	0
2	5402	49.6	0
2	5403	49.61	0
2	5413	49.62	0
2	5414	49.63	0
2	5415	49.64	0
2	5416	49.65	0
2	5417	49.66	0
2	5418	49.67	0
2	5419	49.68	0
2	5420	49.69	0
2	5421	49.7	0
2	5422	49.71	0
2	5423	49.72	0
2	5424	49.73	0
2	5425	49.74	0
2	5426	49.75	0
2	5427	49.76	0
2	5428	49.77	0
2	5429	49.78	0
2	5430	49.79	0
2	5431	49.8	0
2	5432	49.81	0
2	5433	49.82	0
2	5434	49.83	0
2	5435	49.84	0
2	5436	49.85	0
2	5437	49.86	0
2	5438	49.87	0
2	5439	49.88	0
2	5440	49.89	0
2	5441	49.9	0
2	5442	49.91	0
2	5443	49.92	0
2	5444	49.93	0
2	5445	49.94	0
2	5446	49.95	0
2	5447	49.96	0
2	5448	49.97	0
2	5449	49.98	0
2	5450	49.99	0
2	5451	50	0
2	5452	50.01	0
2	5453	50.02	0
2	5454	50.03	0
2	5455	50.04	0
2	5456	50.05	0
2	5457	50.06	0
2	5458	50.07	0
2	5459	50.08	0
2	5460	50.09	0
2	5461	50.1	0
2	5462	50.11	0
2	5463	50.12	0
2	5464	50.13	0
2	5465	50.14	0
2	5466	50.15	0
2	5467	50.16	0
2	5468	50.17	0
2	5469	50.18	0
2	5470	50.19	0
2	5471	50.2	0
2	5472	50.21	0
2	5473	50.22	0
2	5474	50.23	0
2	5475	50.24	0
2	5476	50.25	0
2	5477	50.26	0
2	5478	50.27	0
2	5479	50.28	0
2	5480	50.29	0
2	5481	50.3	0
2	5482	50.31	0
2	5483	50.32	0
2	5484	50.33	0
2	5485	50.34	0
2	5486	50.35	0
2	5487	50.36	0
2	5488	50.37	0
2	5489	50.38	0
2	5490	50.39	0
2	5491	50.4	0
2	5492	50.41	0
2	5493	50.42	0
2	5494	50.43	0
2	5495	50.44	0
2	5496	50.45	0
2	5497	50.46	0
2	5498	50.47	0
2	5499	50.48	0
2	5500	50.49	0
2	5501	50.5	0
2	5502	50.51	0
2	5503	50.52	0
2	5504	50.53	0
2	5505	50.54	0
2	5506	50.55	0
2	5507	50.56	0
2	5508	50.57	0
2	5509	50.58	0
2	5510	50.59	0
2	5511	50.6	0
2	5512	50.61	0
2	5522	50.62	0
2	5523	50.63	0
2	5524	50.64	0
2	5525	50.65	0
2	5526	50.66	0
2	5527	50.67	0
2	5528	50.68	0
2	5529	50.69	0
2	5530	50.7	0
2	5531	50.71	0
2	5532	50.72	0
2	5533	50.73	0
2	5534	50.74	0
2	5535	50.75	0
2	5536	50.76	0
2	5537	50.77	0
2	5538	50.78	0
2	5539	50.79	0
2	5540	50.8	0
2	5541	50.81	0
2	5542	50.82	0
2	5543	50.83	0
2	5544	50.84	0
2	5545	50.85	0
2	5546	50.86	0
2	5547	50.87	0
2	5548	50.88	0
2	5549	50.89	0
2	5550	50.9	0
2	5551	50.91	0
2	5552	50.92	0
2	5553	50.93	0
2	5554	50.94	0
2	5555	50.95	0
2	5556	50.96	0
2	5557	50.97	0
2	5558	50.98	0
2	5559	50.99	0
2	5560	51	0
2	5561	51.01	0
2	5562	51.02	0
2	5563	51.03	0
2	5564	51.04	0
2	5565	51.05	0
2	5566	51.06	0
2	5567	51.07	0
2	5568	51.08	0
2	5569	51.09	0
2	5570	51.1	0
2	5571	51.11	0
2	5572	51.12	0
2	5573	51.13	0
2	5574	51.14	0
2	5575	51.15	0
2	5576	51.16	0
2	5577	51.17	0
2	5578	51.18	0
2	5579	51.19	0
2	5580	51.2	0
2	5581	51.21	0
2	5582	51.22	0
2	5583	51.23	0
2	5584	51.24	0
2	5585	51.25	0
2	5586	51.26	0
2	5587	51.27	0
2	5588	51.28	0
2	5589	51.29	0
2	5590	51.3	0
2	5591	51.31	0
2	5592	51.32	0
2	5593	51.33	0
2	5594	51.34	0
2	5595	51.35	0
2	5596	51.36	0
2	5597	51.37	0
2	5598	51.38	0
2	5599	51.39	0
2	5600	51.4	0
2	5601	51.41	0
2	5602	51.42	0
2	5603	51.43	0
2	5604	51.44	0
2	5605	51.45	0
2	5606	51.46	0
2	5607	51.47	0
2	5608	51.48	0
2	5609	51.49	0
2	5610	51.5	0
2	5611	51.51	0
2	5612	51.52	0
2	5613	51.53	0
2	5614	51.54	0
2	5615	51.55	0
2	5616	51.56	0
2	5617	51.57	0
2	5618	51.58	0
2	5619	51.59	0
2	5620	51.6	0
2	5621	51.61	0
2	5631	51.62	0
2	5632	51.63	0
2	5633	51.64	0
2	5634	51.65	0
2	5635	51.66	0
2	5636	51.67	0
2	5637	51.68	0
2	5638	51.69	0
2	5639	51.7	0
2	5640	51.71	0
2	5641	51.72	0
2	5642	51.73	0
2	5643	51.74	0
2	5644	51.75	0
2	5645	51.76	0
2	5646	51.77	0
2	5647	51.78	0
2	5648	51.79	0
2	5649	51.8	0
2	5650	51.81	0
2	5651	51.82	0
2	5652	51.83	0
2	5653	51.84	0
2	5654	51.85	0
2	5655	51.86	0
2	5656	51.87	0
2	5657	51.88	0
2	5658	51.89	0
2	5659	51.9	0
2	5660	51.91	0
2	5661	51.92	0
2	5662	51.93	0
2	5663	51.94	0
2	5664	51.95	0
2	5665	51.96	0
2	5666	51.97	0
2	5667	51.98	0
2	5668	51.99	0
2	5669	52	0
2	5670	52.01	0
2	5671	52.02	0
2	5672	52.03	0
2	5673	52.04	0
2	5674	52.05	0
2	5675	52.06	0
2	5676	52.07	0
2	5677	52.08	0
2	5678	52.09	0
2	5679	52.1	0
2	5680	52.11	0
2	5681	52.12	0
2	5682	52.13	0
2	5683	52.14	0
2	5684	52.15	0
2	5685	52.16	0
2	5686	52.17	0
2	5687	52.18	0
2	5688	52.19	0
2	5689	52.2	0
2	5690	52.21	0
2	5691	52.22	0
2	5692	52.23	0
2	5693	52.24	0
2	5694	52.25	0
2	5695	52.26	0
2	5696	52.27	0
2	5697	52.28	0
2	5698	52.29	0
2	5699	52.3	0
2	5700	52.31	0
2	5701	52.32	0
2	5702	52.33	0
2	5703	52.34	0
2	5704	52.35	0
2	5705	52.36	0
2	5706	52.37	0
2	5707	52.38	0
2	5708	52.39	0
2	5709	52.4	0
2	5710	52.41	0
2	5711	52.42	0
2	5712	52.43	0
2	5713	52.44	0
2	5714	52.45	0
2	5715	52.46	0
2	5716	52.47	0
2	5717	52.48	0
2	5718	52.49	0
2	5719	52.5	0
2	5720	52.51	0
2	5721	52.52	0
2	5722	52.53	0
2	5723	52.54	0
2	5724	52.55	0
2	5725	52.56	0
2	5726	52.57	0
2	5727	52.58	0
2	5728	52.59	0
2	5729	52.6	0
2	5730	52.61	0
2	5740	52.62	0
2	5741	52.63	0
2	5742	52.64	0
2	5743	52.65	0
2	5744	52.66	0
2	5745	52.67	0
2	5746	52.68	0
2	5747	52.69	0
2	5748	52.7	0
2	5749	52.71	0
2	5750	52.72	0
2	5751	52.73	0
2	5752	52.74	0
2	5753	52.75	0
2	5754	52.76	0
2	5755	52.77	0
2	5756	52.78	0
2	5757	52.79	0
2	5758	52.8	0
2	5759	52.81	0
2	5760	52.82	0
2	5761	52.83	0
2	5762	52.84	0
2	5763	52.85	0
2	5764	52.86	0
2	5765	52.87	0
2	5766	52.88	0
2	5767	52.89	0
2	5768	52.9	0
2	5769	52.91	0
2	5770	52.92	0
2	5771	52.93	0
2	5772	52.94	0
2	5773	52.95	0
2	5774	52.96	0
2	5775	52.97	0
2	5776	52.98	0
2	5777	52.99	0
2	5778	53	0
2	5779	53.01	0
2	5780	53.02	0
2	5781	53.03	0
2	5782	53.04	0
2	5783	53.05	0
2	5784	53.06	0
2	5785	53.07	0
2	5786	53.08	0
2	5787	53.09	0
2	5788	53.1	0
2	5789	53.11	0
2	5790	53.12	0
2	5791	53.13	0
2	5792	53.14	0
2	5793	53.15	0
2	5794	53.16	0
2	5795	53.17	0
2	5796	53.18	0
[...]
0	12370	113.52	93.154357384747
0	12371	113.53	92.993993292991
0	12372	113.54	92.833637518033
0	12373	113.55	92.673290121556
0	12374	113.56	92.512951165303
0	12375	113.57	92.352620711077
0	12376	113.58	92.192298820739
0	12377	113.59	92.031985556209
0	12378	113.6	91.871680979467
0	12379	113.61	91.711385152549
0	12389	113.62	91.551098137552
0	12390	113.63	91.390819996629
0	12391	113.64	91.23055079199
0	12392	113.65	91.070290585903
0	12393	113.66	90.910039440693
0	12394	113.67	90.74979741874
0	12395	113.68	90.589564582484
0	12396	113.69	90.429340994417
0	12397	113.7	90.269126717089
0	12398	113.71	90.108921813103
0	12399	113.72	89.948726345122
0	12400	113.73	89.788540375857
0	12401	113.74	89.628363968079
0	12402	113.75	89.468197184611
0	12403	113.76	89.30804008833
0	12404	113.77	89.147892742165
0	12405	113.78	88.987755209101
0	12406	113.79	88.827627552173
0	12407	113.8	88.667509834472
0	12408	113.81	88.507402119137
0	12409	113.82	88.347304469361
0	12410	113.83	88.18721694839
0	12411	113.84	88.027139619518
0	12412	113.85	87.867072546091
0	12413	113.86	87.707015791507
0	12414	113.87	87.546969419212
0	12415	113.88	87.386933492703
0	12416	113.89	87.226908075526
0	12417	113.9	87.066893231275
0	12418	113.91	86.906889023595
0	12419	113.92	86.746895516177
0	12420	113.93	86.586912772761
0	12421	113.94	86.426940857134
0	12422	113.95	86.266979833132
0	12423	113.96	86.107029764635
0	12424	113.97	85.947090715572
0	12425	113.98	85.787162749916
0	12426	113.99	85.627245931687
0	12427	114	85.467340324949
0	12428	114.01	85.307445993813
0	12429	114.02	85.147563002432
0	12430	114.03	84.987691415006
0	12431	114.04	84.827831295775
0	12432	114.05	84.667982709025
0	12433	114.06	84.508145719084
0	12434	114.07	84.348320390323
0	12435	114.08	84.188506787155
0	12436	114.09	84.028704974033
0	12437	114.1	83.868915015454
0	12438	114.11	83.709136975954
0	12439	114.12	83.549370920109
0	12440	114.13	83.389616912537
0	12441	114.14	83.229875017893
0	12442	114.15	83.070145300873
0	12443	114.16	82.910427826211
0	12444	114.17	82.75072265868
0	12445	114.18	82.591029863089
0	12446	114.19	82.431349504286
0	12447	114.2	82.271681647155
0	12448	114.21	82.112026356617
0	12449	114.22	81.952383697629
0	12450	114.23	81.792753735183
0	12451	114.24	81.633136534307
0	12452	114.25	81.473532160063
0	12453	114.26	81.313940677548
0	12454	114.27	81.15436215189
0	12455	114.28	80.994796648255
0	12456	114.29	80.835244231836
0	12457	114.3	80.675704967864
0	12458	114.31	80.516178921598
0	12459	114.32	80.35666615833
0	12460	114.33	80.197166743381
0	12461	114.34	80.037680742106
0	12462	114.35	79.878208219885
0	12463	114.36	79.718749242133
0	12464	114.37	79.559303874288
0	12465	114.38	79.399872181822
0	12466	114.39	79.24045423023
0	12467	114.4	79.081050085039
0	12468	114.41	78.921659811798
0	12469	114.42	78.762283476087
0	12470	114.43	78.602921143509
0	12471	114.44	78.443572879694
0	12472	114.45	78.284238750294
0	12473	114.46	78.12491882099
0	12474	114.47	77.965613157483
0	12475	114.48	77.806321825498
0	12476	114.49	77.647044890784
0	12477	114.5	77.487782419111
0	12478	114.51	77.328534476272
0	12479	114.52	77.169301128079
0	12480	114.53	77.010082440368
0	12481	114.54	76.850878478991
0	12482	114.55	76.691689309823
0	12483	114.56	76.532514998756
0	12484	114.57	76.373355611701
0	12485	114.58	76.214211214587
0	12486	114.59	76.05508187336
0	12487	114.6	75.895967653983
0	12488	114.61	75.736868622435
0	12498	114.62	75.577784844712
0	12499	114.63	75.418716386823
0	12500	114.64	75.259663314793
0	12501	114.65	75.10062569466
0	12502	114.66	74.941603592476
0	12503	114.67	74.782597074305
0	12504	114.68	74.623606206224
0	12505	114.69	74.464631054321
0	12506	114.7	74.305671684697
0	12507	114.71	74.14672816346
0	12508	114.72	73.987800556731
0	12509	114.73	73.828888930639
0	12510	114.74	73.669993351321
0	12511	114.75	73.511113884922
0	12512	114.76	73.352250597597
0	12513	114.77	73.193403555506
0	12514	114.78	73.034572824814
0	12515	114.79	72.875758471694
0	12516	114.8	72.716960562322
0	12517	114.81	72.558179162881
0	12518	114.82	72.399414339555
0	12519	114.83	72.240666158534
0	12520	114.84	72.081934686007
0	12521	114.85	71.923219988168
0	12522	114.86	71.764522131212
0	12523	114.87	71.605841181332
0	12524	114.88	71.447177204725
0	12525	114.89	71.288530267585
0	12526	114.9	71.129900436105
0	12527	114.91	70.971287776476
0	12528	114.92	70.812692354887
0	12529	114.93	70.654114237524
0	12530	114.94	70.495553490568
0	12531	114.95	70.337010180198
0	12532	114.96	70.178484372585
0	12533	114.97	70.019976133896
0	12534	114.98	69.861485530291
0	12535	114.99	69.703012627924
0	12536	115	69.544557492939
0	12537	115.01	69.386120191474
0	12538	115.02	69.227700789656
0	12539	115.03	69.069299353604
0	12540	115.04	68.910915949425
0	12541	115.05	68.752550643216
0	12542	115.06	68.594203501061
0	12543	115.07	68.435874589034
0	12544	115.08	68.277563973193
0	12545	115.09	68.119271719584
0	12546	115.1	67.960997894238
0	12547	115.11	67.802742563171
0	12548	115.12	67.644505792382
0	12549	115.13	67.486287647855
0	12550	115.14	67.328088195555
0	12551	115.15	67.169907501432
0	12552	115.16	67.011745631414
0	12553	115.17	66.853602651411
0	12554	115.18	66.695478627314
0	12555	115.19	66.537373624991
0	12556	115.2	66.379287710291
0	12557	115.21	66.221220949038
0	12558	115.22	66.063173407035
0	12559	115.23	65.905145150062
0	12560	115.24	65.747136243873
0	12561	115.25	65.589146754196
0	12562	115.26	65.431176746737
0	12563	115.27	65.273226287172
0	12564	115.28	65.115295441151
0	12565	115.29	64.957384274297
0	12566	115.3	64.799492852201
0	12567	115.31	64.641621240429
0	12568	115.32	64.493364286241
0	12569	115.33	64.392033261139
0	12570	115.34	64.290715080805
0	12571	115.35	64.189409787251
0	12572	115.36	64.088117422469
0	12573	115.37	63.986838028428
0	12574	115.38	63.885571647077
0	12575	115.39	63.78431832034
0	12576	115.4	63.683078090119
0	12577	115.41	63.581850998292
0	12578	115.42	63.480637086713
0	12579	115.43	63.379436397212
0	12580	115.44	63.278248971592
0	12581	115.45	63.177074851631
0	12582	115.46	63.075914079083
0	12583	115.47	62.974766695674
0	12584	115.48	62.873632743101
0	12585	115.49	62.772512263036
0	12586	115.5	62.671405297122
0	12587	115.51	62.570311886974
0	12588	115.52	62.469232074176
0	12589	115.53	62.368165900286
0	12590	115.54	62.267113406828
0	12591	115.55	62.166074635298
0	12592	115.56	62.06504962716
0	12593	115.57	61.964038423846
0	12594	115.58	61.863041066758
0	12595	115.59	61.762057597263
0	12596	115.6	61.661088056696
0	12597	115.61	61.560132486358
0	12607	115.62	61.459190927517
0	12608	115.63	61.358263421405
0	12609	115.64	61.257350009221
0	12610	115.65	61.156450732124
0	12611	115.66	61.055565631243
0	12612	115.67	60.954694747665
0	12613	115.68	60.853838122443
0	12614	115.69	60.752995796591
0	12615	115.7	60.652167811085
0	12616	115.71	60.551354206864
0	12617	115.72	60.450555024824
0	12618	115.73	60.349770305826
0	12619	115.74	60.249000090687
0	12620	115.75	60.148244420185
0	12621	115.76	60.047503335056
0	12622	115.77	59.946776875995
0	12623	115.78	59.846065083654
0	12624	115.79	59.745367998643
0	12625	115.8	59.644685661528
0	12626	115.81	59.54401811283
0	12627	115.82	59.443365393028
0	12628	115.83	59.342727542555
0	12629	115.84	59.242104601798
0	12630	115.85	59.141496611098
0	12631	115.86	59.040903610751
0	12632	115.87	58.940325641005
0	12633	115.88	58.839762742059
0	12634	115.89	58.739214954066
0	12635	115.9	58.638682317131
0	12636	115.91	58.538164871306
0	12637	115.92	58.437662656599
0	12638	115.93	58.337175712962
0	12639	115.94	58.2367040803
0	12640	115.95	58.136247798466
0	12641	115.96	58.035806907261
0	12642	115.97	57.935381446432
0	12643	115.98	57.834971455677
0	12644	115.99	57.734576974637
0	12645	116	57.634198042901
0	12646	116.01	57.533834700002
0	12647	116.02	57.43348698542
0	12648	116.03	57.333154938578
0	12649	116.04	57.232838598843
0	12650	116.05	57.132538005526
0	12651	116.06	57.03225319788
0	12652	116.07	56.931984215103
0	12653	116.08	56.83173109633
0	12654	116.09	56.731493880642
0	12655	116.1	56.631272607058
0	12656	116.11	56.531067314537
0	12657	116.12	56.430878041979
0	12658	116.13	56.330704828223
0	12659	116.14	56.230547712046
0	12660	116.15	56.130406732163
0	12661	116.16	56.030281927227
0	12662	116.17	55.930173335826
0	12663	116.18	55.830080996488
0	12664	116.19	55.730004947673
0	12665	116.2	55.629945227779
0	12666	116.21	55.529901875138
0	12667	116.22	55.429874928015
0	12668	116.23	55.329864424612
0	12669	116.24	55.22987040306
0	12670	116.25	55.129892901425
0	12671	116.26	55.029931957705
0	12672	116.27	54.929987609829
0	12673	116.28	54.830059895657
0	12674	116.29	54.73014885298
0	12675	116.3	54.630254519518
0	12676	116.31	54.530376932921
0	12677	116.32	54.430516130768
0	12678	116.33	54.330672150566
0	12679	116.34	54.23084502975
0	12680	116.35	54.131034805681
0	12681	116.36	54.031241515648
0	12682	116.37	53.931465196866
0	12683	116.38	53.831705886476
0	12684	116.39	53.731963621541
0	12685	116.4	53.632238439053
0	12686	116.41	53.532530375926
0	12687	116.42	53.432839468995
0	12688	116.43	53.333165755022
0	12689	116.44	53.233509270689
0	12690	116.45	53.1338700526
0	12691	116.46	53.034248137281
0	12692	116.47	52.934643561177
0	12693	116.48	52.835056360657
0	12694	116.49	52.735486572004
0	12695	116.5	52.635934231425
0	12696	116.51	52.536399375044
0	12697	116.52	52.436882038902
0	12698	116.53	52.337382258959
0	12699	116.54	52.23790007109
0	12700	116.55	52.138435511089
0	12701	116.56	52.038988614665
0	12702	116.57	51.93955941744
0	12703	116.58	51.840147954955
0	12704	116.59	51.740754262661
0	12705	116.6	51.641378375927
0	12706	116.61	51.542020330032
0	12716	116.62	51.442680160169
0	12717	116.63	51.343357901443
0	12718	116.64	51.24405358887
0	12719	116.65	51.144767257378
0	12720	116.66	51.045498941806
0	12721	116.67	50.946248676901
0	12722	116.68	50.847016497323
0	12723	116.69	50.747802437636
0	12724	116.7	50.648606532318
0	12725	116.71	50.549428815751
0	12726	116.72	50.450269322225
0	12727	116.73	50.351128085939
0	12728	116.74	50.252005140995
0	12729	116.75	50.152900521405
0	12730	116.76	50.053814261082
0	12731	116.77	49.954746393848
0	12732	116.78	49.855696953425
0	12733	116.79	49.756665973443
0	12734	116.8	49.657653487431
0	12735	116.81	49.558659528824
0	12736	116.82	49.459684130958
0	12737	116.83	49.360727327071
0	12738	116.84	49.261789150301
0	12739	116.85	49.162869633688
0	12740	116.86	49.063968810173
0	12741	116.87	48.965086712593
0	12742	116.88	48.866223373688
0	12743	116.89	48.767378826095
0	12744	116.9	48.668553102349
0	12745	116.91	48.569746234883
0	12746	116.92	48.470958256025
0	12747	116.93	48.372189198004
0	12748	116.94	48.273439092942
0	12749	116.95	48.174707972855
0	12750	116.96	48.075995869659
0	12751	116.97	47.977302815159
0	12752	116.98	47.878628841059
0	12753	116.99	47.779973978953
0	12754	117	47.68133826033
0	12755	117.01	47.582721716571
0	12756	117.02	47.484124378948
0	12757	117.03	47.385546278627
0	12758	117.04	47.286987446663
0	12759	117.05	47.188447914002
0	12760	117.06	47.089927711481
0	12761	117.07	46.991426869826
0	12762	117.08	46.892945419652
0	12763	117.09	46.794483391463
0	12764	117.1	46.696040815651
0	12765	117.11	46.597617722495
0	12766	117.12	46.499214142162
0	12767	117.13	46.400830104706
0	12768	117.14	46.302465640067
0	12769	117.15	46.20412077807
0	12770	117.16	46.105795548426
0	12771	117.17	46.007489980731
0	12772	117.18	45.909204104464
0	12773	117.19	45.810937948989
0	12774	117.2	45.712691543555
0	12775	117.21	45.61446491729
0	12776	117.22	45.516258099207
0	12777	117.23	45.418071118202
0	12778	117.24	45.31990400305
0	12779	117.25	45.221756782408
0	12780	117.26	45.123629484814
0	12781	117.27	45.025522138687
0	12782	117.28	44.927434772324
0	12783	117.29	44.829367413901
0	12784	117.3	44.731320091475
0	12785	117.31	44.633292832979
0	12786	117.32	44.535285666226
0	12787	117.33	44.437298618905
0	12788	117.34	44.339331718582
0	12789	117.35	44.2413849927
0	12790	117.36	44.143458468578
0	12791	117.37	44.045552173411
0	12792	117.38	43.947666134268
0	12793	117.39	43.849800378095
0	12794	117.4	43.75195493171
0	12795	117.41	43.654129821807
0	12796	117.42	43.556325074952
0	12797	117.43	43.458540717583
0	12798	117.44	43.360776776015
0	12799	117.45	43.263033276431
0	12800	117.46	43.165310244886
0	12801	117.47	43.067607707309
0	12802	117.48	42.969925689499
0	12803	117.49	42.872264217124
0	12804	117.5	42.774623315723
0	12805	117.51	42.677003010705
0	12806	117.52	42.579403327348
0	12807	117.53	42.4818242908
0	12808	117.54	42.384265926076
0	12809	117.55	42.286728258059
0	12810	117.56	42.1892113115
0	12811	117.57	42.091715111019
0	12812	117.58	41.994239681101
0	12813	117.59	41.896785046097
0	12814	117.6	41.799351230225
0	12815	117.61	41.70193825757
0	12825	117.62	41.604546152079
0	12826	117.63	41.507174937568
0	12827	117.64	41.409824637714
0	12828	117.65	41.31249527606
0	12829	117.66	41.215186876013
0	12830	117.67	41.117899460842
0	12831	117.68	41.020633053679
0	12832	117.69	40.923387677521
0	12833	117.7	40.826163355225
0	12834	117.71	40.728960109511
0	12835	117.72	40.631777962959
0	12836	117.73	40.534616938013
0	12837	117.74	40.437477056975
0	12838	117.75	40.340358342009
0	12839	117.76	40.243260815139
0	12840	117.77	40.146184498248
0	12841	117.78	40.049129413079
0	12842	117.79	39.952095581235
0	12843	117.8	39.855083024175
0	12844	117.81	39.758091763219
0	12845	117.82	39.661121819544
0	12846	117.83	39.564173214184
0	12847	117.84	39.467245968033
0	12848	117.85	39.370340101838
0	12849	117.86	39.273455636206
0	12850	117.87	39.176592591599
0	12851	117.88	39.079750988335
0	12852	117.89	38.982930846588
0	12853	117.9	38.886132186387
0	12854	117.91	38.789355027617
0	12855	117.92	38.692599390016
0	12856	117.93	38.595865293179
0	12857	117.94	38.499152756554
0	12858	117.95	38.40246179944
0	12859	117.96	38.305792440995
0	12860	117.97	38.209144700226
0	12861	117.98	38.112518595994
0	12862	117.99	38.015914147013
0	12863	118	37.91933137185
0	12864	118.01	37.822770288923
0	12865	118.02	37.726230916501
0	12866	118.03	37.629713272706
0	12867	118.04	37.533217375511
0	12868	118.05	37.436743242739
0	12869	118.06	37.340290892066
0	12870	118.07	37.243860341014
0	12871	118.08	37.14745160696
0	12872	118.09	37.051064707127
0	12873	118.1	36.954699658589
0	12874	118.11	36.85835647827
0	12875	118.12	36.762035182943
0	12876	118.13	36.665735789228
0	12877	118.14	36.569458313596
0	12878	118.15	36.473202772364
0	12879	118.16	36.376969181698
0	12880	118.17	36.313454533666
0	12881	118.18	36.280302704142
0	12882	118.19	36.247158456296
0	12883	118.2	36.21402179549
0	12884	118.21	36.180892727032
0	12885	118.22	36.147771256177
0	12886	118.23	36.11465738813
0	12887	118.24	36.081551128038
0	12888	118.25	36.048452480999
0	12889	118.26	36.015361452056
0	12890	118.27	35.9822780462
0	12891	118.28	35.949202268366
0	12892	118.29	35.916134123439
0	12893	118.3	35.883073616249
0	12894	118.31	35.850020751571
0	12895	118.32	35.81697553413
0	12896	118.33	35.783937968593
0	12897	118.34	35.750908059576
0	12898	118.35	35.717885811642
0	12899	118.36	35.684871229297
0	12900	118.37	35.651864316996
0	12901	118.38	35.618865079138
0	12902	118.39	35.58587352007
0	12903	118.4	35.552889644082
0	12904	118.41	35.519913455413
0	12905	118.42	35.486944958245
0	12906	118.43	35.453984156708
0	12907	118.44	35.421031054876
0	12908	118.45	35.388085656769
0	12909	118.46	35.355147966354
0	12910	118.47	35.322217987541
0	12911	118.48	35.289295724187
0	12912	118.49	35.256381180094
0	12913	118.5	35.22347435901
0	12914	118.51	35.190575264627
0	12915	118.52	35.157683900584
0	12916	118.53	35.124800270463
0	12917	118.54	35.091924377793
0	12918	118.55	35.059056226047
0	12919	118.56	35.026195818644
0	12920	118.57	34.993343158947
0	12921	118.58	34.960498250265
0	12922	118.59	34.927661095852
0	12923	118.6	34.894831698905
0	12924	118.61	34.862010062568
0	12934	118.62	34.829196189929
0	12935	118.63	34.796390084021
0	12936	118.64	34.763591747822
0	12937	118.65	34.730801184253
0	12938	118.66	34.698018396183
0	12939	118.67	34.665243386422
0	12940	118.68	34.632476157727
0	12941	118.69	34.5997167128
0	12942	118.7	34.566965054285
0	12943	118.71	34.534221184773
0	12944	118.72	34.501485106799
0	12945	118.73	34.468756822841
0	12946	118.74	34.436036335324
0	12947	118.75	34.403323646616
0	12948	118.76	34.370618759029
0	12949	118.77	34.33792167482
0	12950	118.78	34.305232396191
0	12951	118.79	34.272550925288
0	12952	118.8	34.2398772642
0	12953	118.81	34.207211414963
0	12954	118.82	34.174553379555
0	12955	118.83	34.141903159899
0	12956	118.84	34.109260757864
0	12957	118.85	34.076626175261
0	12958	118.86	34.043999413846
0	12959	118.87	34.01138047532
0	12960	118.88	33.978769361328
0	12961	118.89	33.946166073458
0	12962	118.9	33.913570613244
0	12963	118.91	33.880982982165
0	12964	118.92	33.848403181641
0	12965	118.93	33.815831213038
0	12966	118.94	33.783267077669
0	12967	118.95	33.750710776786
0	12968	118.96	33.71816231159
0	12969	118.97	33.685621683223
0	12970	118.98	33.653088892773
0	12971	118.99	33.620563941273
0	12972	119	33.588046829698
0	12973	119.01	33.555537558968
0	12974	119.02	33.52303612995
0	12975	119.03	33.490542543451
0	12976	119.04	33.458056800225
0	12977	119.05	33.425578900971
0	12978	119.06	33.393108846331
0	12979	119.07	33.36064663689
0	12980	119.08	33.328192273181
0	12981	119.09	33.295745755678
0	12982	119.1	33.263307084802
0	12983	119.11	33.230876260916
0	12984	119.12	33.19845328433
0	12985	119.13	33.166038155297
0	12986	119.14	33.133630874015
0	12987	119.15	33.101231440626
0	12988	119.16	33.068839855217
0	12989	119.17	33.03645611782
0	12990	119.18	33.00408022841
0	12991	119.19	32.971712186909
0	12992	119.2	32.939351993183
0	12993	119.21	32.90699964704
0	12994	119.22	32.874655148237
0	12995	119.23	32.842318496472
0	12996	119.24	32.809989691391
0	12997	119.25	32.777668732583
0	12998	119.26	32.745355619583
0	12999	119.27	32.713050351868
0	13000	119.28	32.680752928865
0	13001	119.29	32.648463349941
0	13002	119.3	32.616181614411
0	13003	119.31	32.583907721534
0	13004	119.32	32.551641670515
0	13005	119.33	32.519383460503
0	13006	119.34	32.487133090593
0	13007	119.35	32.454890559826
0	13008	119.36	32.422655867186
0	13009	119.37	32.390429011604
0	13010	119.38	32.358209991956
0	13011	119.39	32.325998807065
0	13012	119.4	32.293795455697
0	13013	119.41	32.261599936565
0	13014	119.42	32.229412248327
0	13015	119.43	32.197232389587
0	13016	119.44	32.165060358895
0	13017	119.45	32.132896154747
0	13018	119.46	32.100739775583
0	13019	119.47	32.068591219792
0	13020	119.48	32.036450485705
0	13021	119.49	32.004317571604
0	13022	119.5	31.972192475713
0	13023	119.51	31.940075196203
0	13024	119.52	31.907965731192
0	13025	119.53	31.875864078745
0	13026	119.54	31.843770236872
0	13027	119.55	31.811684203529
0	13028	119.56	31.779605976621
0	13029	119.57	31.747535553996
0	13030	119.58	31.715472933451
0	13031	119.59	31.683418112731
0	13032	119.6	31.651371089523
0	13033	119.61	31.619331861467
0	13043	119.62	31.587300426145
0	13044	119.63	31.555276781088
0	13045	119.64	31.523260923774
0	13046	119.65	31.491252851628
0	13047	119.66	31.459252562023
0	13048	119.67	31.427260052278
0	13049	119.68	31.395275319661
0	13050	119.69	31.363298361385
0	13051	119.7	31.331329174613
0	13052	119.71	31.299367756456
0	13053	119.72	31.267414103969
0	13054	119.73	31.23546821416
0	13055	119.74	31.20353008398
0	13056	119.75	31.171599710332
0	13057	119.76	31.139677090065
0	13058	119.77	31.107762219977
0	13059	119.78	31.075855096813
0	13060	119.79	31.043955717267
0	13061	119.8	31.012064077984
0	13062	119.81	30.980180175553
0	13063	119.82	30.948304006515
0	13064	119.83	30.916435567358
0	13065	119.84	30.884574854521
0	13066	119.85	30.85272186439
0	13067	119.86	30.820876593301
0	13068	119.87	30.789039037538
0	13069	119.88	30.757209193335
0	13070	119.89	30.725387056877
0	13071	119.9	30.693572624295
0	13072	119.91	30.661765891672
0	13073	119.92	30.629966855041
0	13074	119.93	30.598175510384
0	13075	119.94	30.566391853631
0	13076	119.95	30.534615880666
0	13077	119.96	30.50284758732
0	13078	119.97	30.471086969376
0	13079	119.98	30.439334022565
0	13080	119.99	30.407588742571
0	13081	120	30.375851125028

