version 2
run NoAlgorithm-0-20201022-12:28:00-15044
attr configname NoAlgorithm
attr datetime 20201022-12:28:00
attr experiment NoAlgorithm
attr inifile omnetpp.ini
attr iterationvars ""
attr iterationvarsf ""
attr measurement ""
attr network Scenario
attr processid 15044
attr repetition 0
attr replication #0
attr resultdir results
attr runnumber 0
attr seedset 0
param *.node[*].appl.runAlgorithm false
param *.playgroundSizeX 2500m
param *.playgroundSizeY 50000m
param *.playgroundSizeZ 50m
param *.annotations.draw true
param *.obstacles.debug false
param *.world.useTorus false
param *.world.use2D false
param *.traciScenarioManager.updateInterval 0.01s
param *.traciScenarioManager.host "\"localhost\""
param *.traciScenarioManager.port 9999
param *.traciScenarioManager.autoShutdown true
param *.traciScenarioManager.launchConfig "xmldoc(\"highway.launchd.xml\")"
param *.traciScenarioManager.configFile "\"highway.sumo.cfg\""
param *.traciScenarioManager.moduleType "\"smart_car=org.car2x.veins.nodes.Car normal_car=0 human_car=0 sporty_car=0 trailer=0 coach=0\""
param *.traciScenarioManager.moduleName "\"smart_car=node normal_car=0 human_car=0 sporty_car=0 trailer=0 coach=0\""
param *.traciScenarioManager.moduleDisplayString "\"\""
param *.connectionManager.sendDirect true
param *.connectionManager.maxInterfDist 2600m
param *.connectionManager.drawMaxIntfDist false
param *.**.nic.mac1609_4.useServiceChannel false
param *.**.nic.mac1609_4.txPower 20mW
param *.**.nic.mac1609_4.bitrate 6Mbps
param *.**.nic.phy80211p.minPowerLevel -110dBm
param *.**.nic.phy80211p.useNoiseFloor true
param *.**.nic.phy80211p.noiseFloor -98dBm
param *.**.nic.phy80211p.decider "xmldoc(\"config.xml\")"
param *.**.nic.phy80211p.analogueModels "xmldoc(\"config.xml\")"
param *.**.nic.phy80211p.usePropagationDelay true
param *.**.nic.phy80211p.antenna "xmldoc(\"antenna.xml\", \"/root/Antenna[@id='monopole']\")"
param *.node[*].nic.phy80211p.antennaOffsetY "0 m"
param *.node[*].nic.phy80211p.antennaOffsetZ "1.895 m"
param *.node[*].applType "\"PhantomTrafficAppLayer\""
param *.node[*].appl.headerLength "80 bit"
param *.node[*].appl.sendBeacons true
param *.node[*].appl.dataOnSch false
param *.node[*].appl.beaconInterval 1s
param *.node[*].veinsmobility.x 0
param *.node[*].veinsmobility.y 0
param *.node[*].veinsmobility.z 0
param *.node[*].veinsmobility.setHostSpeed false
param *.trafficManager.stopVehiclesAt 40
param *.trafficManager.stopVehiclesDuration 10
param *.trafficManager.numberOfVehicles 50
param *.trafficManager.percentageOfSmartCars 0.05
param *.trafficManager.percentageOfBrakingCars 0.15

vector 0 Scenario.node[0].veinsmobility posx ETV
vector 1 Scenario.node[0].veinsmobility posy ETV
vector 2 Scenario.node[0].veinsmobility speed ETV
vector 3 Scenario.node[0].veinsmobility acceleration ETV
vector 4 Scenario.node[0].veinsmobility co2emission ETV
vector 5 Scenario.node[1].veinsmobility posx ETV
vector 6 Scenario.node[1].veinsmobility posy ETV
vector 7 Scenario.node[1].veinsmobility speed ETV
vector 8 Scenario.node[1].veinsmobility acceleration ETV
vector 9 Scenario.node[1].veinsmobility co2emission ETV
vector 10 Scenario.node[0].appl vehicleCount ETV
vector 11 Scenario.node[0].appl averageSpeed ETV
vector 12 Scenario.node[0].appl aboveThreshold ETV
vector 13 Scenario.node[0].appl beaconSize ETV
vector 14 Scenario.node[0].appl ptmItemsSize ETV
vector 15 Scenario.node[1].appl vehicleCount ETV
vector 16 Scenario.node[1].appl averageSpeed ETV
vector 17 Scenario.node[1].appl aboveThreshold ETV
vector 18 Scenario.node[1].appl updateCsCt ETV
vector 19 Scenario.node[1].appl newCsCt ETV
vector 20 Scenario.node[1].appl beaconSize ETV
vector 21 Scenario.node[1].appl ptmItemsSize ETV
vector 22 Scenario.node[2].veinsmobility posx ETV
vector 23 Scenario.node[2].veinsmobility posy ETV
vector 24 Scenario.node[2].veinsmobility speed ETV
vector 25 Scenario.node[2].veinsmobility acceleration ETV
vector 26 Scenario.node[2].veinsmobility co2emission ETV
vector 27 Scenario.node[2].appl vehicleCount ETV
vector 28 Scenario.node[2].appl averageSpeed ETV
vector 29 Scenario.node[2].appl aboveThreshold ETV
vector 30 Scenario.node[2].appl updateCsCt ETV
vector 31 Scenario.node[2].appl newCsCt ETV
vector 32 Scenario.node[2].appl beaconSize ETV
vector 33 Scenario.node[2].appl ptmItemsSize ETV
11	5555	47.550463780274	25.188745532566
11	5684	48.550467813714	24.099970092658
11	5813	49.550458687501	23.034156983693
11	5943	50.550462408441	24.473266917085
11	6073	51.550465986619	25.272086558714
11	6203	52.550469447244	25.585299075206
11	6333	53.550459817767	25.483703703587
11	6463	54.550463125944	0
11	6595	55.550466399542	0
11	6754	56.550468030934	0
11	6913	57.550469660287	0
11	7072	58.550458298763	0
11	7231	59.550459951685	0
11	7390	60.550461617698	0
11	7549	61.550463299981	0
11	7708	62.550465000941	0
11	7868	63.550466720948	0
11	8188	65.550470219275	0
11	8352	66.55045899776	0
11	8512	67.550460795836	0
11	8832	69.550464465803	0
10	5555	47.550463780274	1
10	5684	48.550467813714	1
10	5813	49.550458687501	1
10	5943	50.550462408441	1
10	6073	51.550465986619	1
10	6203	52.550469447244	1
10	6333	53.550459817767	1
10	6463	54.550463125944	0
10	6595	55.550466399542	0
10	6754	56.550468030934	0
10	6913	57.550469660287	0
10	7072	58.550458298763	0
10	7231	59.550459951685	0
10	7390	60.550461617698	0
10	7549	61.550463299981	0
10	7708	62.550465000941	0
10	7868	63.550466720948	0
10	8188	65.550470219275	0
10	8352	66.55045899776	0
10	8512	67.550460795836	0
10	8832	69.550464465803	0
12	5555	47.550463780274	0
12	5684	48.550467813714	0
12	5813	49.550458687501	0
12	5943	50.550462408441	0
12	6073	51.550465986619	0
12	6203	52.550469447244	0
12	6333	53.550459817767	0
12	6463	54.550463125944	0
12	6595	55.550466399542	0
12	6754	56.550468030934	0
12	6913	57.550469660287	0
12	7072	58.550458298763	0
12	7231	59.550459951685	0
12	7390	60.550461617698	0
12	7549	61.550463299981	0
12	7708	62.550465000941	0
12	7868	63.550466720948	0
12	8188	65.550470219275	0
12	8352	66.55045899776	0
12	8512	67.550460795836	0
12	8832	69.550464465803	0
14	5555	47.550463780274	0
14	5684	48.550467813714	0
14	5813	49.550458687501	0
14	5943	50.550462408441	1
14	6073	51.550465986619	1
14	6203	52.550469447244	1
14	6333	53.550459817767	1
14	6463	54.550463125944	2
14	6595	55.550466399542	2
14	6754	56.550468030934	2
14	6913	57.550469660287	2
14	7072	58.550458298763	2
14	7231	59.550459951685	2
14	7390	60.550461617698	1
14	7549	61.550463299981	1
14	7708	62.550465000941	1
14	7868	63.550466720948	1
14	8188	65.550470219275	0
14	8352	66.55045899776	1
14	8512	67.550460795836	1
14	8832	69.550464465803	1
13	5555	47.550463780274	1
13	5684	48.550467813714	1
13	5813	49.550458687501	1
13	5943	50.550462408441	1
13	6073	51.550465986619	1
13	6203	52.550469447244	1
13	6333	53.550459817767	1
13	6463	54.550463125944	1
13	6595	55.550466399542	1
13	6754	56.550468030934	1
13	6913	57.550469660287	1
13	7072	58.550458298763	1
13	7231	59.550459951685	1
13	7390	60.550461617698	1
13	7549	61.550463299981	1
13	7708	62.550465000941	1
13	7868	63.550466720948	1
13	8188	65.550470219275	1
13	8352	66.55045899776	1
13	8512	67.550460795836	1
13	8832	69.550464465803	1
4	4	0.03	0.973
4	5	0.04	3.7895589485802
4	6	0.05	1.8697320398472
4	7	0.06	3.701343879427
4	8	0.07	3.3776541355985
4	9	0.08	1.5104287457803
4	10	0.09	2.5873126256286
4	11	0.1	3.7014386169013
4	12	0.11	1.8962041103786
4	13	0.12	4.4973518689045
4	14	0.13	3.7585771090595
4	15	0.14	4.8862674363616
4	16	0.15	0.973
4	17	0.16	0.973
4	18	0.17	0.973
4	19	0.18	0.973
4	20	0.19	0.973
4	21	0.2	0.973
4	22	0.21	0.973
4	23	0.22	0.973
4	24	0.23	0.973
4	25	0.24	0.973
4	26	0.25	0.973
4	27	0.26	0.973
4	28	0.27	0.973
4	29	0.28	0.973
4	30	0.29	0.973
4	31	0.3	0.973
4	32	0.31	0.973
4	33	0.32	0.973
4	34	0.33	0.973
4	35	0.34	0.973
4	36	0.35	0.973
4	37	0.36	0.973
4	38	0.37	0.973
4	39	0.38	0.973
4	40	0.39	0.973
4	41	0.4	0.973
4	42	0.41	0.973
4	43	0.42	0.973
4	44	0.43	0.973
4	45	0.44	0.973
4	46	0.45	0.973
4	47	0.46	30.338386631149
4	48	0.47	30.345413168679
4	49	0.48	30.352161406462
4	50	0.49	30.358631347141
4	51	0.5	30.364823003964
4	52	0.51	30.370736400788
4	53	0.52	5.6985008789241
4	54	0.53	0.973
4	55	0.54	0.973
4	56	0.55	0.973
4	57	0.56	0.973
4	58	0.57	0.973
4	59	0.58	0.973
4	60	0.59	0.973
4	61	0.6	0.973
4	62	0.61	0.973
4	72	0.62	0.973
4	73	0.63	0.973
4	74	0.64	0.973
4	75	0.65	0.973
4	76	0.66	0.973
4	77	0.67	0.973
4	78	0.68	0.973
4	79	0.69	-0.29903597782777
4	80	0.7	-0.21912034809852
4	81	0.71	-0.12437820999024
4	82	0.72	-0.031504088981674
4	83	0.73	0.042677475419628
4	84	0.74	0.12008349452858
4	85	0.75	0.19365946977037
4	86	0.76	0.2695601858804
4	87	0.77	0.35860009852998
4	88	0.78	0.44011798575495
4	89	0.79	0.51497133494994
4	90	0.8	0.58310564557402
4	91	0.81	0.65690340246075
4	92	0.82	0.73500066995069
4	93	0.83	0.80152607106498
4	94	0.84	0.88380682876883
4	95	0.85	0.95589697057266
4	96	0.86	1.0336015828576
4	97	0.87	1.1139850886767
4	98	0.88	1.1830295593559
4	99	0.89	1.2494714168283
4	100	0.9	1.3246778930223
4	101	0.91	1.3991851005985
4	102	0.92	1.4793879963564
4	103	0.93	1.5591977239075
4	104	0.94	1.6328254304328
4	105	0.95	1.6922087524668
4	106	0.96	1.7510666575876
4	107	0.97	1.8158390253455
4	108	0.98	1.8879458025221
4	109	0.99	1.9505698670871
4	110	1	2.0181539676918
4	111	1.01	2.0812540960488
4	112	1.02	2.1423978612652
4	113	1.03	2.2111534042773
4	114	1.04	2.2671973069945
4	115	1.05	2.3270157431048
4	116	1.06	2.3973113975617
4	117	1.07	2.4669134717522
4	118	1.08	2.5354309194281
4	119	1.09	2.5987366631349
4	120	1.1	2.6678211908508
4	121	1.11	2.7346635380071
4	122	1.12	2.8012518300478
4	123	1.13	2.8616891220255
4	124	1.14	2.9120538793249
4	125	1.15	0.973
4	126	1.16	0.973
4	127	1.17	0.973
4	128	1.18	0.973
4	129	1.19	0.973
4	130	1.2	0.973
4	131	1.21	0.973
4	132	1.22	0.973
4	133	1.23	0.973
4	134	1.24	0.973
4	135	1.25	0.973
4	136	1.26	0.973
4	137	1.27	0.973
4	138	1.28	0.973
4	139	1.29	0.973
4	140	1.3	0.973
4	141	1.31	0.973
4	142	1.32	0.973
4	143	1.33	0.973
4	144	1.34	0.973
4	145	1.35	0.973
4	146	1.36	0.973
4	147	1.37	0.973
4	148	1.38	0.973
4	149	1.39	0.973
4	150	1.4	0.973
4	151	1.41	0.973
4	152	1.42	0.973
4	153	1.43	0.973
4	154	1.44	0.973
4	155	1.45	0.973
4	156	1.46	1.802307865187
4	157	1.47	1.8744311282883
4	158	1.48	3.8761346395552
4	159	1.49	6.5485693283199
4	160	1.5	1.820241339352
4	161	1.51	4.1138062603123
4	162	1.52	3.4958577982292
4	163	1.53	5.7849328497789
4	164	1.54	3.3739994893677
4	165	1.55	3.8535543017385
4	166	1.56	3.7077643301195
4	167	1.57	6.0160880387864
4	168	1.58	3.4709704498069
4	169	1.59	4.3436595327649
4	170	1.6	3.9047104228073
4	171	1.61	6.1014540040063
4	181	1.62	2.9491755849904
4	182	1.63	4.0694820872688
4	183	1.64	4.8521554558985
4	184	1.65	6.1042273443822
4	185	1.66	2.5171427376909
4	186	1.67	5.7366686249433
4	187	1.68	3.1304805117318
4	188	1.69	6.5032249121195
4	189	1.7	2.3941080030445
4	190	1.71	5.4725925897351
4	191	1.72	3.5023310131884
4	192	1.73	6.149503159252
4	193	1.74	2.8685237415754
4	194	1.75	4.9399582196139
4	195	1.76	4.3623421816026
4	196	1.77	5.2683698384294
4	197	1.78	6.1582564800624
4	198	1.79	2.0612245070078
4	199	1.8	4.7033862402783
4	200	1.81	3.6264075253547
4	201	1.82	3.4197326661263
4	202	1.83	5.8884632562687
4	203	1.84	6.5681633686413
4	204	1.85	3.5589166859189
4	205	1.86	3.6175628670315
4	206	1.87	5.1681185613966
4	207	1.88	4.1188528110493
4	208	1.89	3.8648580928163
4	209	1.9	4.6503368345915
4	210	1.91	3.8436107805984
4	211	1.92	6.538437366805
4	212	1.93	5.7450491466269
4	213	1.94	5.6943274293111
4	214	1.95	6.2230827476026
4	215	1.96	2.5217670071637
4	216	1.97	6.5171395362378
4	217	1.98	3.078900437924
4	218	1.99	6.3901500020815
4	219	2	3.26542546437
4	220	2.01	5.2575170158036
4	221	2.02	5.9870746076664
4	222	2.03	3.2991875626372
4	223	2.04	4.8521479666137
4	224	2.05	5.5930165100587
4	225	2.06	4.1924615626876
4	226	2.07	6.0852052049794
4	227	2.08	5.9360269983067
4	228	2.09	2.7175189618332
4	229	2.1	5.3475862057217
4	230	2.11	5.9307034917225
4	231	2.12	3.5493332780082
4	232	2.13	3.9143898102341
4	233	2.14	6.2263225677242
4	234	2.15	5.3994539559165
4	235	2.16	5.8018383035486
4	236	2.17	3.5747265362341
4	237	2.18	5.6648703873352
4	238	2.19	4.9698851217604
4	239	2.2	3.5751113419075
4	240	2.21	5.3489335025623
4	241	2.22	4.4608301835088
4	242	2.23	4.6864908260418
4	243	2.24	4.1395577997276
4	244	2.25	6.4004109021571
4	245	2.26	4.1550741414551
4	246	2.27	3.5445039092225
4	247	2.28	4.6321362792076
4	248	2.29	5.6984783561577
4	249	2.3	4.4058799601711
4	250	2.31	4.3156371111985
4	251	2.32	4.4694013775316
4	252	2.33	6.1502830855403
4	253	2.34	3.4407462517408
4	254	2.35	3.5555584571381
4	255	2.36	5.2401627237636
4	256	2.37	4.7298378745845
4	257	2.38	6.4818716339812
4	258	2.39	3.43406758623
4	259	2.4	3.9712130158225
4	260	2.41	4.6081304241358
4	261	2.42	4.1722300704598
4	262	2.43	6.0657895450838
4	263	2.44	5.6330776978685
4	264	2.45	5.8454454254575
4	265	2.46	4.6889451917018
4	266	2.47	6.360113629221
4	267	2.48	3.7131563181563
4	268	2.49	5.1564441688752
4	269	2.5	5.18116431759
4	270	2.51	6.3028218491964
4	271	2.52	4.3928926527822
4	272	2.53	4.0103933505194
4	273	2.54	4.590183817244
4	274	2.55	5.8631632650945
4	275	2.56	4.0846487316418
4	276	2.57	6.1905921033326
4	277	2.58	3.9491737182675
4	278	2.59	4.7848379311091
4	279	2.6	5.7026099543575
4	280	2.61	5.0032489541008
4	290	2.62	4.6017511608139
4	291	2.63	5.8465474831286
4	292	2.64	3.8959864053312
4	293	2.65	5.2990663082155
4	294	2.66	3.8077473997876
4	295	2.67	3.9587986383753
4	296	2.68	6.3908384425954
4	297	2.69	4.5707551815176
4	298	2.7	5.6874747962217
4	299	2.71	4.2237657488305
4	300	2.72	4.9528091637873
4	301	2.73	5.1953419731521
4	302	2.74	3.8169406012517
4	303	2.75	6.5052234679323
4	304	2.76	4.9014523325821
4	305	2.77	5.6202493620472
4	306	2.78	6.5913614648836
4	307	2.79	4.225444967257
4	308	2.8	4.8979231588588
4	309	2.81	3.7843980371875
4	310	2.82	4.782904501788
4	311	2.83	5.6078700155125
4	312	2.84	3.5275821395367
4	313	2.85	6.3390492402552
4	314	2.86	6.5542323004216
4	315	2.87	4.3174098133305
4	316	2.88	5.5306886068297
4	317	2.89	5.5271220979543
4	318	2.9	3.8882394519751
4	319	2.91	5.6500444671833
4	320	2.92	3.8524061607241
4	321	2.93	4.6351622394924
4	322	2.94	5.6848997270517
4	323	2.95	6.5329475877757
4	324	2.96	5.9564115750815
4	325	2.97	3.567663940551
4	326	2.98	5.4415622663175
4	327	2.99	6.2059280433547
4	328	3	5.7652966158799
4	329	3.01	3.8343599577952
4	330	3.02	6.1925726245733
4	331	3.03	4.2319719933667
4	332	3.04	6.2934491886304
4	333	3.05	3.6192720053413
4	334	3.06	5.0187198740593
4	335	3.07	6.6178341677356
4	336	3.08	3.7569066924283
4	337	3.09	5.5844024857357
4	338	3.1	4.3916210529595
4	339	3.11	5.0551812022207
4	340	3.12	6.4930647573262
4	341	3.13	6.4039021797687
4	342	3.14	6.2876916346877
4	343	3.15	6.2056597031258
4	344	3.16	6.567151703093
4	345	3.17	6.5868613623328
4	346	3.18	3.6146848630521
4	347	3.19	6.4558128323133
4	348	3.2	5.0526810733302
4	349	3.21	6.3469185851996
4	350	3.22	6.0015345866591
4	351	3.23	4.2254198182277
4	352	3.24	3.6985789645707
4	353	3.25	5.1960073808176
4	354	3.26	6.7434738968075
4	355	3.27	3.4618759668789
4	356	3.28	6.7286627674986
4	357	3.29	6.5651120620291
4	358	3.3	6.5185276637625
4	359	3.31	5.4303088538061
4	360	3.32	3.9361508057585
4	361	3.33	4.9923341249949
4	362	3.34	4.671246393203
4	363	3.35	3.8355101849743
4	364	3.36	3.6332493949396
4	365	3.37	4.0808654353704
4	366	3.38	5.1133068227098
4	367	3.39	4.7944502180134
4	368	3.4	5.3903031037382
4	369	3.41	5.4887458707063
4	370	3.42	3.9750874919745
4	371	3.43	4.0834652247878
4	372	3.44	4.3900741842798
4	373	3.45	3.9959710120099
4	374	3.46	6.5176069758351
4	375	3.47	3.9909767415114
4	376	3.48	4.6111874544944
4	377	3.49	4.517809095634
4	378	3.5	3.9840122609724
4	379	3.51	6.564031625869
4	380	3.52	6.4439846345399
4	381	3.53	5.9439872901773
4	382	3.54	5.319693910054
4	383	3.55	5.2914999835728
4	384	3.56	5.7984873009111
4	385	3.57	5.2119061883752
4	386	3.58	5.3742191764192
4	387	3.59	4.1462895391198
4	388	3.6	6.3548958839445
4	389	3.61	6.0939933291693
4	399	3.62	5.5805507925577
4	400	3.63	4.6938845315116
4	401	3.64	6.0371291903378
4	402	3.65	5.699153509731
4	403	3.66	6.6861212903226
4	404	3.67	4.3517882628331
4	405	3.68	5.566875116858
4	406	3.69	6.2398171025852
4	407	3.7	4.6623008410177
4	408	3.71	5.3098603099256
4	409	3.72	5.5044030407926
4	410	3.73	6.5783811054692
4	411	3.74	5.6460851058475
4	412	3.75	6.180384598956
4	413	3.76	5.159913028811
4	414	3.77	3.7973743938092
4	415	3.78	4.6591318759825
4	416	3.79	5.8495434894853
4	417	3.8	6.5311571768809
4	418	3.81	3.9481443713901
4	419	3.82	4.8085294770116
4	420	3.83	5.178415294194
4	421	3.84	6.3310743150344
4	422	3.85	6.7630613883592
4	423	3.86	3.924436767244
4	424	3.87	4.2981015460006
4	425	3.88	4.4827663235491
4	426	3.89	6.7486881207977
4	427	3.9	5.5715733181981
4	428	3.91	4.1974805568412
4	429	3.92	5.1056371343778
4	430	3.93	6.8966685579379
4	431	3.94	4.8184172246
4	432	3.95	4.7099887390203
4	433	3.96	4.4146228068458
4	434	3.97	6.3968062534003
4	435	3.98	5.3931597299212
4	436	3.99	5.8092198089898
4	437	4	5.4815147152554
4	438	4.01	3.807342049477
4	439	4.02	5.1575947033216
4	440	4.03	5.3593601384204
4	441	4.04	6.8605598398852
4	442	4.05	4.7865517261191
4	443	4.06	4.5283649996321
4	444	4.07	4.580982868543
4	445	4.08	4.7734979262864
4	446	4.09	6.6541153952517
4	447	4.1	6.1348666147125
4	448	4.11	4.2318481494829
4	449	4.12	3.9914609913707
4	450	4.13	4.0081840930887
4	451	4.14	4.5863593092972
4	452	4.15	6.5104686394799
4	453	4.16	4.2772213268908
4	454	4.17	5.23060076255
4	455	4.18	4.1857405326719
4	456	4.19	6.111389431863
4	457	4.2	5.3996904154442
4	458	4.21	4.6057670850816
4	459	4.22	5.5422292701701
4	460	4.23	6.9573690959837
4	461	4.24	4.1215626416525
4	462	4.25	5.3663853826419
4	463	4.26	6.1174786921151
4	464	4.27	4.4413859136279
4	465	4.28	5.0911704503135
4	466	4.29	4.6488301486943
4	467	4.3	5.6482790132511
4	468	4.31	6.7186104565348
4	469	4.32	6.8849962059361
4	470	4.33	4.3091590100965
4	471	4.34	3.9501974654804
4	472	4.35	6.2971129808676
4	473	4.36	5.7041494535917
4	474	4.37	4.4125356288095
4	475	4.38	5.2487625774614
4	476	4.39	5.4505993779968
4	477	4.4	5.9955778210785
4	478	4.41	6.5826829171387
4	479	4.42	4.4381113148415
4	480	4.43	4.6910260758162
4	481	4.44	7.0877512937183
4	482	4.45	4.454638923828
4	483	4.46	4.2658517840566
4	484	4.47	4.8286663648789
4	485	4.48	5.6387136709369
4	486	4.49	3.9596779164609
4	487	4.5	5.5044107728305
4	488	4.51	6.3278086479556
4	489	4.52	6.1988077982278
4	490	4.53	6.3581959787152
4	491	4.54	4.2625963803729
4	492	4.55	6.6386676147189
4	493	4.56	5.7708456056197
4	494	4.57	5.3323576036757
4	495	4.58	3.9614352267402
4	496	4.59	5.8132699091341
4	497	4.6	5.8603614298844
4	498	4.61	5.9494068833428
4	508	4.62	4.3715752918567
4	509	4.63	5.615925520212
4	510	4.64	4.7605876693602
4	511	4.65	6.2375040495491
4	512	4.66	6.9404598567027
4	513	4.67	7.1103209945917
4	514	4.68	6.4335686104067
4	515	4.69	5.5415878022945
4	516	4.7	4.9987548789105
4	517	4.71	6.2484451312079
4	518	4.72	3.8077877582882
4	519	4.73	5.6472240279942
4	520	4.74	6.9012499612615
4	521	4.75	4.0334717557389
4	522	4.76	5.8413005055263
4	523	4.77	6.5265623701859
4	524	4.78	7.1350855131323
4	525	4.79	4.9842368377227
4	526	4.8	5.5512743611574
4	527	4.81	4.9675083747933
4	528	4.82	6.2655603750065
4	529	4.83	6.1686614271145
4	530	4.84	3.8292934009361
4	531	4.85	5.5526659987531
4	532	4.86	6.9163750028029
4	533	4.87	3.9280924472771
4	534	4.88	5.1875849079195
4	535	4.89	5.9996622027911
4	536	4.9	3.9860429602044
4	537	4.91	4.7718390846137
4	538	4.92	4.0512085283167
4	539	4.93	4.3717081764378
4	540	4.94	6.8644655468457
4	541	4.95	5.9595521374438
4	542	4.96	3.9044233997096
4	543	4.97	3.8871267843527
4	544	4.98	3.9416254287013
4	545	4.99	5.1274140383466
4	546	5	5.6226913050889
4	547	5.01	5.5897475308718
4	548	5.02	4.6181091612576
4	549	5.03	4.8790106155177
4	550	5.04	7.8647713242693
4	551	5.05	7.877606897451
4	552	5.06	7.8875445901845
4	553	5.07	7.8961376918722
4	554	5.08	7.9105474738062
4	555	5.09	7.9265891093984
4	556	5.1	7.9382535060372
4	557	5.11	7.948028513809
4	558	5.12	7.9645616177176
4	559	5.13	7.9777920407683
4	560	5.14	7.9854964449065
4	561	5.15	8.0016457227038
4	562	5.16	8.0094002201639
4	563	5.17	8.022911728646
4	564	5.18	8.0388713140263
4	565	5.19	8.0542882492065
4	566	5.2	8.0612509097897
4	567	5.21	8.0703773598779
4	568	5.22	8.0850910947643
4	569	5.23	8.0974799061896
4	570	5.24	8.1106591645699
4	571	5.25	8.1200202407728
4	572	5.26	8.1299957983799
4	573	5.27	8.1363023088883
4	574	5.28	8.1429381170315
4	575	5.29	8.1539517804356
4	576	5.3	8.1613580075968
4	577	5.31	8.1681428953494
4	578	5.32	8.1835813333435
4	579	5.33	8.1971600037254
4	580	5.34	8.2075111310451
4	581	5.35	8.2213716892696
4	582	5.36	8.231312269759
4	583	5.37	8.2378086972928
4	584	5.38	8.2482849311496
4	585	5.39	8.256808809633
4	586	5.4	8.2644833045118
4	587	5.41	8.2703016726175
4	588	5.42	8.2836751319296
4	589	5.43	6.5075345461956
4	590	5.44	8.3125382962063
4	591	5.45	2.9275971804017
4	592	5.46	8.3690159140706
4	593	5.47	2.8635265987639
4	594	5.48	8.4222288649563
4	595	5.49	2.8131100131934
4	596	5.5	8.47428068642
4	597	5.51	2.7429976387476
4	598	5.52	7.4710007915805
4	599	5.53	3.7588912294147
4	600	5.54	8.5806676837074
4	601	5.55	2.630706786255
4	602	5.56	8.6337806632438
4	603	5.57	2.5720780911358
4	604	5.58	8.6865107637552
4	605	5.59	2.516967884842
4	606	5.6	8.7327503513939
4	607	5.61	2.467133278985
4	617	5.62	8.7943202564509
4	618	5.63	2.3971593387142
4	619	5.64	8.8496618826305
4	620	5.65	8.8601133638131
4	621	5.66	8.3199768531347
4	622	5.67	8.8760526609779
4	623	5.68	8.884781288022
4	624	5.69	8.0732084662498
4	625	5.7	8.7583948070111
4	626	5.71	8.9142756495109
4	627	5.72	8.920116835197
4	628	5.73	8.922547978912
4	629	5.74	8.7607467982057
4	630	5.75	8.9362179080214
4	631	5.76	8.9405894097596
4	632	5.77	8.9509496314447
4	633	5.78	8.9547125971044
4	634	5.79	8.9610505458387
4	635	5.8	8.9686475821287
4	636	5.81	8.9760675676559
4	637	5.82	8.9831759279286
4	638	5.83	8.9887871880296
4	639	5.84	8.9962994398628
4	640	5.85	9.0001556705263
4	641	5.86	9.0020671861606
4	642	5.87	9.0045896513804
4	643	5.88	9.0140605224802
4	644	5.89	9.0226453032584
4	645	5.9	9.02473355317
4	646	5.91	9.0329236097341
4	647	5.92	9.0400073255233
4	648	5.93	9.0440954304858
4	649	5.94	9.0510718271646
4	650	5.95	9.0533181309802
4	651	5.96	9.0598720615361
4	652	5.97	9.0705097896252
4	653	5.98	9.0778236765179
4	654	5.99	9.0798744263545
4	655	6	9.0862768726028
4	656	6.01	9.0916692482267
4	657	6.02	9.1020103665576
4	658	6.03	9.1112239180646
4	659	6.04	9.1210332058051
4	660	6.05	9.1291361979791
4	661	6.06	9.1328520106926
4	662	6.07	9.1357513283887
4	663	6.08	9.1403106616206
4	664	6.09	9.1440097465937
4	665	6.1	9.1541647884062
4	666	6.11	9.164406796147
4	667	6.12	9.1719594104772
4	668	6.13	9.178152110292
4	669	6.14	9.1863786035396
4	670	6.15	9.1913436596553
4	671	6.16	9.2010477810828
4	672	6.17	9.206581512949
4	673	6.18	9.2118779232406
4	674	6.19	9.2145351553894
4	675	6.2	9.2207721315163
4	676	6.21	9.2270370898551
4	677	6.22	9.2366298351579
4	678	6.23	9.2461840571162
4	679	6.24	9.2508478660431
4	680	6.25	9.2554958103558
4	681	6.26	9.2579658453501
4	682	6.27	9.2654135821064
4	683	6.28	9.2742253092747
4	684	6.29	9.2776308397504
4	685	6.3	9.2848712928611
4	686	6.31	9.2862202745966
4	687	6.32	9.2900339965885
4	688	6.33	9.2944567541799
4	689	6.34	9.2996021733328
4	690	6.35	9.3033901028027
4	691	6.36	9.3083586825729
4	692	6.37	9.3126148776633
4	693	6.38	9.3179523769499
4	694	6.39	9.3246316304999
4	695	6.4	9.3259039165921
4	696	6.41	9.3305688279865
4	697	6.42	9.3344742070582
4	698	6.43	9.3379869740991
4	699	6.44	9.3418702430545
4	700	6.45	9.3491574324273
4	701	6.46	9.354466608437
4	702	6.47	9.3632931854402
4	703	6.48	9.3682125244145
4	704	6.49	9.3720736269326
4	705	6.5	9.3731684097546
4	706	6.51	9.3773591563305
4	707	6.52	9.3847055289764
4	708	6.53	9.3861080917904
4	709	6.54	9.3865997786715
4	710	6.55	9.3887689973859
4	711	6.56	9.3972850357717
4	712	6.57	9.4029919615091
4	713	6.58	9.4066291267995
4	714	6.59	9.4107250927282
4	715	6.6	9.4195359405376
4	716	6.61	8.8720038005812
4	726	6.62	9.4258215482307
4	727	6.63	9.433646152723
4	728	6.64	9.4154611802417
4	729	6.65	9.3133946148584
4	730	6.66	9.4474068829318
4	731	6.67	9.4511312690815
4	732	6.68	9.4513339559408
4	733	6.69	8.2936078083618
4	734	6.7	7.7801078380902
4	735	6.71	8.4381538569348
4	736	6.72	9.4894317525369
4	737	6.73	9.0558199128846
4	738	6.74	9.498200186376
4	739	6.75	9.5029348766193
4	740	6.76	9.3712106601066
4	741	6.77	8.6381071710968
4	742	6.78	9.5223434514462
4	743	6.79	9.5297005230419
4	744	6.8	9.5352793354032
4	745	6.81	9.5382184684108
4	746	6.82	9.5440167481549
4	747	6.83	9.5518166643149
4	748	6.84	9.5514269249128
4	749	6.85	9.5565173432229
4	750	6.86	9.5611807640174
4	751	6.87	9.5653752473731
4	752	6.88	9.5650161026844
4	753	6.89	8.9634856222395
4	754	6.9	8.1850650940151
4	755	6.91	9.58260853562
4	756	6.92	9.5845198452279
4	757	6.93	9.5919245825332
4	758	6.94	9.1757585670001
4	759	6.95	8.1225977386857
4	760	6.96	9.6125966989736
4	761	6.97	9.6143755961646
4	762	6.98	9.6140128358549
4	763	6.99	9.6216729439053
4	764	7	9.6296927647218
4	765	7.01	9.6348093025924
4	766	7.02	9.6369210954444
4	767	7.03	9.6365154904964
4	768	7.04	9.6409761797756
4	769	7.05	9.6409078619841
4	770	7.06	9.6434026302401
4	771	7.07	9.6465288547967
4	772	7.08	9.6488554838106
4	773	7.09	9.654617022854
4	774	7.1	9.6570134386302
4	775	7.11	9.6637011923944
4	776	7.12	9.6687075215957
4	777	7.13	9.6715350975668
4	778	7.14	9.678739543731
4	779	7.15	9.6785254716342
4	780	7.16	9.678973692123
4	781	7.17	9.6808151327885
4	782	7.18	9.6802219599496
4	783	7.19	9.6840442371745
4	784	7.2	9.2004516364588
4	785	7.21	7.8404957095182
4	786	7.22	7.9848504233254
4	787	7.23	9.4213835125051
4	788	7.24	9.729035988141
4	789	7.25	9.0804470949449
4	790	7.26	9.7417389406378
4	791	7.27	9.3876670654341
4	792	7.28	9.240854036896
4	793	7.29	9.758230322375
4	794	7.3	9.7638351721882
4	795	7.31	9.7651032365674
4	796	7.32	9.7686885543782
4	797	7.33	9.7747926223873
4	798	7.34	9.7762433037097
4	799	7.35	9.7828768669737
4	800	7.36	9.7855498230994
4	801	7.37	9.786746173534
4	802	7.38	9.791029417751
4	803	7.39	9.7915839042269
4	804	7.4	9.7917614685627
4	805	7.41	9.7935608470548
4	806	7.42	9.7996234647352
4	807	7.43	9.8064243802023
4	808	7.44	9.8119332038563
4	809	7.45	9.8165665345907
4	810	7.46	9.8201079467318
4	811	7.47	9.8204658146361
4	812	7.48	9.8204597829315
4	813	7.49	9.8238598284261
4	814	7.5	9.8287255265345
4	815	7.51	9.8264405514376
4	816	7.52	9.8155111881379
4	817	7.53	9.8007504618325
4	818	7.54	9.7856365161332
4	819	7.55	9.7816237639341
4	820	7.56	9.7707339723024
4	821	7.57	9.7600547595944
4	822	7.58	9.7440604186416
4	823	7.59	9.7300240891473
4	824	7.6	9.7247394514255
4	825	7.61	9.7147262774294
4	835	7.62	9.6994434454907
4	836	7.63	9.6894454830016
4	837	7.64	9.6769873322997
4	838	7.65	9.6702064895586
4	839	7.66	9.6603241515789
4	840	7.67	8.9597872972496
4	841	7.68	9.6394576941636
4	842	7.69	9.6243111173775
4	843	7.7	9.6175857744864
4	844	7.71	9.6079404422289
4	845	7.72	9.5970058134967
4	846	7.73	9.5847497803454
4	847	7.74	9.5765828356988
4	848	7.75	9.5649172265437
4	849	7.76	9.5546088929219
4	850	7.77	9.5380752451141
4	851	7.78	9.5272794664594
4	852	7.79	9.5188043305019
4	853	7.8	9.5101749168203
4	854	7.81	9.4916841080661
4	855	7.82	9.4862333339125
4	856	7.83	9.4730611458318
4	857	7.84	9.4584238787721
4	858	7.85	9.4527163729378
4	859	7.86	9.4376003019614
4	860	7.87	9.4325772479739
4	861	7.88	9.415576753111
4	862	7.89	4.163792565537
4	863	7.9	1.4790572910612
4	864	7.91	4.775015487521
4	865	7.92	6.4836884947473
4	866	7.93	1.7671949171725
4	867	7.94	5.7112227665365
4	868	7.95	5.1925395277086
4	869	7.96	1.2563388270643
4	870	7.97	7.4110546562486
4	871	7.98	4.2071622213713
4	872	7.99	1.7135972650392
4	873	8	4.7416924170524
4	874	8.01	6.6623790814448
4	875	8.02	2.2932739381316
4	876	8.03	4.9660462185243
4	877	8.04	2.6462348744863
4	878	8.05	5.2577498230796
4	879	8.06	4.1314216178147
4	880	8.07	4.9584795721539
4	881	8.08	5.9802315249821
4	882	8.09	2.9180007397776
4	883	8.1	4.6038325493026
4	884	8.11	3.3724826425831
4	885	8.12	4.5352856769071
4	886	8.13	2.8102370012435
4	887	8.14	6.9633363582252
4	888	8.15	4.5663843350423
4	889	8.16	2.8099354499206
4	890	8.17	5.5653133105038
4	891	8.18	2.1343730559293
4	892	8.19	6.1104270944311
4	893	8.2	4.1876146976715
4	894	8.21	2.9535116572936
4	895	8.22	3.6489024174285
4	896	8.23	4.6716834471585
4	897	8.24	4.8268686861876
4	898	8.25	4.6214125223563
4	899	8.26	2.3004582493282
4	900	8.27	5.6076209389741
4	901	8.28	3.2181257296252
4	902	8.29	7.0624078032794
4	903	8.3	1.9561526403355
4	904	8.31	4.4948540614395
4	905	8.32	6.3904118863038
4	906	8.33	1.5062274703389
4	907	8.34	4.0338240701557
4	908	8.35	7.0913263615742
4	909	8.36	4.3648519788267
4	910	8.37	4.8173334727784
4	911	8.38	2.6921856262454
4	912	8.39	3.1655304766078
4	913	8.4	4.8006419460196
4	914	8.41	6.1828594980424
4	915	8.42	1.3540697288085
4	916	8.43	6.4656733085213
4	917	8.44	3.7891598616752
4	918	8.45	4.6470315840258
4	919	8.46	3.8002941076838
4	920	8.47	4.0110459106336
4	921	8.48	4.1685483593583
4	922	8.49	3.4312888394436
4	923	8.5	3.9543128575623
4	924	8.51	4.8074718989071
4	925	8.52	4.0347297431421
4	926	8.53	6.1994939657915
4	927	8.54	4.379636914611
4	928	8.55	2.2553863351134
4	929	8.56	4.1262652556215
4	930	8.57	6.2577828977346
4	931	8.58	4.7852159110478
4	932	8.59	4.2366350699013
4	933	8.6	2.7577454857812
4	934	8.61	4.2728023311157
4	944	8.62	3.9823110229965
4	945	8.63	5.3651314725169
4	946	8.64	3.546818568977
4	947	8.65	3.6072820802888
4	948	8.66	6.7017234374645
4	949	8.67	4.8902705049874
4	950	8.68	1.3495896827184
4	951	8.69	6.3046736849959
4	952	8.7	1.7719352597614
4	953	8.71	5.0657373085397
4	954	8.72	5.4394528707529
4	955	8.73	5.7282656899449
4	956	8.74	1.6119864564154
4	957	8.75	5.8131792150582
4	958	8.76	3.5184420023491
4	959	8.77	2.7597406494055
4	960	8.78	5.7338630418063
4	961	8.79	4.5254392206112
4	962	8.8	5.0022904618907
4	963	8.81	3.2302180981855
4	964	8.82	2.9323089472367
4	965	8.83	5.8376094867096
4	966	8.84	3.2077324688235
4	967	8.85	4.2701343962078
4	968	8.86	3.8610428093119
4	969	8.87	6.7883845967127
4	970	8.88	4.6803551377949
4	971	8.89	3.8076968553001
4	972	8.9	5.3336685937849
4	973	8.91	3.5847773823571
4	974	8.92	2.9662960931626
4	975	8.93	3.9161056692429
4	976	8.94	4.4300612807704
4	977	8.95	3.5355714623443
4	978	8.96	4.8418817528727
4	979	8.97	3.8153251909326
4	980	8.98	7.2366235548704
4	981	8.99	3.9205619939373
4	982	9	4.0223787143368
4	983	9.01	1.7898079279476
4	984	9.02	6.4038617495725
4	985	9.03	4.5640588410278
4	986	9.04	4.7482352922829
4	987	9.05	2.8534740070107
4	988	9.06	5.5678101848103
4	989	9.07	2.4249710317486
4	990	9.08	5.6410590923052
4	991	9.09	2.9897794023544
4	992	9.1	3.6265361353509
4	993	9.11	5.1233540136492
4	994	9.12	6.3602508905614
4	995	9.13	3.5808063383396
4	996	9.14	3.9293132678948
4	997	9.15	2.3691894856437
4	998	9.16	6.5312794783482
4	999	9.17	1.4806219701919
4	1000	9.18	6.007797259081
4	1001	9.19	3.155984289661
4	1002	9.2	5.666087431461
4	1003	9.21	2.3405075356372
4	1004	9.22	5.7731412305397
4	1005	9.23	5.2721579415457
4	1006	9.24	2.2508751441348
4	1007	9.25	4.8374834410229
4	1008	9.26	4.2555538659923
4	1009	9.27	5.9905877275179
4	1010	9.28	4.3647930484826
4	1011	9.29	3.8320282509156
4	1012	9.3	3.4590303285565
4	1013	9.31	5.9017832949775
4	1014	9.32	2.0160577522065
4	1015	9.33	5.4532080228174
4	1016	9.34	3.1360335015704
4	1017	9.35	4.5603299799364
4	1018	9.36	3.1183499664862
4	1019	9.37	6.5338480682822
4	1020	9.38	5.280762317131
4	1021	9.39	1.5012260840713
4	1022	9.4	6.9571556603232
4	1023	9.41	3.1589494416807
4	1024	9.42	4.2147820896091
4	1025	9.43	5.0877383493677
4	1026	9.44	1.5539186599979
4	1027	9.45	4.5955486944169
4	1028	9.46	5.2088175506094
4	1029	9.47	4.2775588466722
4	1030	9.48	4.7148807606004
4	1031	9.49	5.3183930451697
4	1032	9.5	4.4160863526994
4	1033	9.51	2.5407680683307
4	1034	9.52	6.6021456615057
4	1035	9.53	2.663596365905
4	1036	9.54	2.91547146054
4	1037	9.55	4.6151022800124
4	1038	9.56	7.1076448013817
4	1039	9.57	3.5825342333531
4	1040	9.58	3.8189756719375
4	1041	9.59	5.3728400181669
4	1042	9.6	2.3713940856623
4	1043	9.61	6.1273087606809
4	1053	9.62	4.4561466410649
4	1054	9.63	4.134495243573
4	1055	9.64	2.6674694562919
4	1056	9.65	4.4333062559206
4	1057	9.66	4.8598203606427
4	1058	9.67	3.0326948464029
4	1059	9.68	6.468964305419
4	1060	9.69	4.0188799879421
4	1061	9.7	1.3665386493451
4	1062	9.71	6.3569957100021
4	1063	9.72	4.7580514771078
4	1064	9.73	4.3161593577153
4	1065	9.74	1.703768612966
4	1066	9.75	5.9889154906364
4	1067	9.76	3.9665043875656
4	1068	9.77	5.5579698829585
4	1069	9.78	4.1778733556558
4	1070	9.79	2.9258026854024
4	1071	9.8	3.6079671121718
4	1072	9.81	5.2352910756063
4	1073	9.82	6.1873355321681
4	1074	9.83	2.55217841969
4	1075	9.84	4.5989482067445
4	1076	9.85	2.9971056155151
4	1077	9.86	4.0675859782751
4	1078	9.87	5.5602296292704
4	1079	9.88	4.4719139057966
4	1080	9.89	3.4314075468961
4	1081	9.9	3.2490855719414
4	1082	9.91	6.4746012445545
4	1083	9.92	3.277787308117
4	1084	9.93	3.6016394204149
4	1085	9.94	4.2289370302448
4	1086	9.95	6.2588920447337
4	1087	9.96	3.4089718556068
4	1088	9.97	4.8339701388047
4	1089	9.98	2.8108163455494
4	1090	9.99	4.6048691130927
4	1091	10	3.4467852209997
4	1092	10.01	4.4533684757236
4	1093	10.02	6.5794174824791
4	1094	10.03	2.9965685251598
4	1095	10.04	6.0326843539333
4	1096	10.05	1.6511084419338
4	1097	10.06	6.147593722927
4	1098	10.07	2.4521997797515
4	1099	10.08	4.3139069873195
4	1100	10.09	5.882368251263
4	1101	10.1	3.2462024117599
4	1102	10.11	3.0771570388466
4	1103	10.12	5.9338138234865
4	1104	10.13	4.5597974376745
4	1105	10.14	3.3077695272401
4	1106	10.15	4.275167805641
4	1107	10.16	3.5973108713089
4	1108	10.17	6.1693254732255
4	1109	10.18	3.3616953033895
4	1110	10.19	3.3673756852151
4	1111	10.2	5.5200720391756
4	1112	10.21	5.4901126005198
4	1113	10.22	5.140506180786
4	1114	10.23	1.7541847853705
4	1115	10.24	3.6595337232692
4	1116	10.25	5.2900682559119
4	1117	10.26	3.7352950463064
4	1118	10.27	3.7811617217709
4	1119	10.28	6.3769694628212
4	1120	10.29	5.36349494486
4	1121	10.3	3.5663440215927
4	1122	10.31	3.147659969087
4	1123	10.32	4.4470984996343
4	1124	10.33	5.0005621799876
4	1125	10.34	1.8505007206337
4	1126	10.35	4.3397190812176
4	1127	10.36	7.3305146488305
4	1128	10.37	3.9775966087385
4	1129	10.38	2.3514461743788
4	1130	10.39	6.3785364129128
4	1131	10.4	1.6844667589092
4	1132	10.41	3.8377126028376
4	1133	10.42	6.5466642122827
4	1134	10.43	4.845847999875
4	1135	10.44	3.2332627968437
4	1136	10.45	2.7044982330352
4	1137	10.46	5.1370455724623
4	1138	10.47	6.191831047913
4	1139	10.48	1.5582606876833
4	1140	10.49	7.0425972104219
4	1141	10.5	4.408524838341
4	1142	10.51	2.6309511824424
4	1143	10.52	4.1426082072293
4	1144	10.53	6.310795118245
4	1145	10.54	4.1564195418545
4	1146	10.55	3.9225104493449
4	1147	10.56	3.5084555019972
4	1148	10.57	4.0711822897662
4	1149	10.58	3.336105981559
4	1150	10.59	3.7815664718286
4	1151	10.6	6.4828652738434
4	1152	10.61	3.5507576083635
4	1162	10.62	4.3422723961962
4	1163	10.63	5.8917312265012
4	1164	10.64	3.3614488907987
4	1165	10.65	3.1492480791879
4	1166	10.66	6.2113604222447
4	1167	10.67	1.9896999760298
4	1168	10.68	4.8776068817565
4	1169	10.69	3.3243216954429
4	1170	10.7	5.8268213020172
4	1171	10.71	5.3160055891307
4	1172	10.72	1.6487845655718
4	1173	10.73	5.0516782285476
4	1174	10.74	3.6732975339104
4	1175	10.75	5.0416854787204
4	1176	10.76	4.3521773297441
4	1177	10.77	3.6290443139935
4	1178	10.78	3.9228576034843
4	1179	10.79	5.149656922283
4	1180	10.8	5.1824171795005
4	1181	10.81	2.0340319846568
4	1182	10.82	7.7436473091433
4	1183	10.83	2.1649847208099
4	1184	10.84	5.1822904140313
4	1185	10.85	3.9898862308778
4	1186	10.86	3.4629923663686
4	1187	10.87	5.6775386878591
4	1188	10.88	4.0916163591574
4	1189	10.89	4.7172093770966
4	1190	10.9	1.7555401759086
4	1191	10.91	5.5593698352762
4	1192	10.92	4.8677465027853
4	1193	10.93	2.595551937248
4	1194	10.94	4.6061655400739
4	1195	10.95	3.7145954037515
4	1196	10.96	6.987345796532
4	1197	10.97	1.8593931361497
4	1198	10.98	6.5171888906729
4	1199	10.99	4.5037905966337
4	1200	11	4.4011981351857
4	1201	11.01	2.2649970146789
4	1202	11.02	4.3600865617284
4	1203	11.03	5.7124300174352
4	1204	11.04	2.6435125531902
4	1205	11.05	3.5913185247727
4	1206	11.06	4.8220324005399
4	1207	11.07	5.0329488802965
4	1208	11.08	2.7820999374386
4	1209	11.09	6.1247976689856
4	1210	11.1	4.2755992691383
4	1211	11.11	3.0741470432809
4	1212	11.12	4.8238304954186
4	1213	11.13	4.5722627934256
4	1214	11.14	4.887557134456
4	1215	11.15	4.2112175478747
4	1216	11.16	5.039092989305
4	1217	11.17	2.9311527107844
4	1218	11.18	4.145217367295
4	1219	11.19	5.2278650025474
4	1220	11.2	4.7269562202943
4	1221	11.21	2.8454489215778
4	1222	11.22	4.260075881365
4	1223	11.23	3.2361201204116
4	1224	11.24	4.472907785315
4	1225	11.25	7.1225495762854
4	1226	11.26	2.3295026986168
4	1227	11.27	4.6388416812091
4	1228	11.28	5.8976192207496
4	1229	11.29	3.5538185055637
4	1230	11.3	4.5034030102007
4	1231	11.31	4.7131502737496
4	1232	11.32	1.587122579842
4	1233	11.33	6.6436624873859
4	1234	11.34	2.5774053055474
4	1235	11.35	4.7672446253751
4	1236	11.36	2.9818517528133
4	1237	11.37	7.2888043346295
4	1238	11.38	3.1741190608201
4	1239	11.39	3.223254330579
4	1240	11.4	4.2239984469926
4	1241	11.41	5.4601964891909
4	1242	11.42	2.46623154309
4	1243	11.43	5.5871364103336
4	1244	11.44	4.4771887087639
4	1245	11.45	3.2290245729558
4	1246	11.46	4.4424262414258
4	1247	11.47	5.5701120426547
4	1248	11.48	3.250956775557
4	1249	11.49	5.8825581328381
4	1250	11.5	3.1261855976394
4	1251	11.51	4.1761345252631
4	1252	11.52	5.6183415212485
4	1253	11.53	5.0887875029533
4	1254	11.54	4.0197905271811
4	1255	11.55	2.01201494877
4	1256	11.56	5.1120386778017
4	1257	11.57	4.2127562674468
4	1258	11.58	5.1441732466152
4	1259	11.59	5.1269769586961
4	1260	11.6	1.9753718494996
4	1261	11.61	4.8634144499121
4	1271	11.62	3.6206302194051
4	1272	11.63	5.1395796519626
4	1273	11.64	2.6295097008206
4	1274	11.65	6.9128080543145
4	1275	11.66	3.2878833467507
4	1276	11.67	2.3647581317652
4	1277	11.68	5.1884343321752
4	1278	11.69	6.845458239554
4	1279	11.7	3.7202074142726
4	1280	11.71	3.5837082250734
4	1281	11.72	5.0920394241517
4	1282	11.73	3.9935957364664
4	1283	11.74	3.3782632299603
4	1284	11.75	3.8520813593517
4	1285	11.76	3.0575485798292
4	1286	11.77	5.2554557641242
4	1287	11.78	4.8644538837773
4	1288	11.79	4.3604574595945
4	1289	11.8	3.4968061931901
4	1290	11.81	6.3849106848641
4	1291	11.82	1.7278573609204
4	1292	11.83	5.2957011740604
4	1293	11.84	6.2685430167336
4	1294	11.85	3.6076837453616
4	1295	11.86	4.44939308901
4	1296	11.87	1.8374886235863
4	1297	11.88	6.0738662884548
4	1298	11.89	4.598429275004
4	1299	11.9	4.6891999378083
4	1300	11.91	4.4126587996797
4	1301	11.92	1.8338210544019
4	1302	11.93	6.8119142922324
4	1303	11.94	1.5565147535673
4	1304	11.95	7.3550922902735
4	1305	11.96	4.0474806171374
4	1306	11.97	1.1412032556078
4	1307	11.98	5.2153412786849
4	1308	11.99	5.1919938293435
4	1309	12	2.993727493493
4	1310	12.01	4.5834181942329
4	1311	12.02	4.4349728740874
4	1312	12.03	5.5518189119969
4	1313	12.04	4.3210721054802
4	1314	12.05	2.7895534183352
4	1315	12.06	6.3482247282783
4	1316	12.07	3.4973438672623
4	1317	12.08	2.4774278613871
4	1318	12.09	4.7243121529297
4	1319	12.1	6.2366466891339
4	1320	12.11	1.5118302965858
4	1321	12.12	5.9831516023968
4	1322	12.13	5.6783028818691
4	1323	12.14	2.5680742923632
4	1324	12.15	4.8969115000631
4	1325	12.16	3.9527096980734
4	1326	12.17	4.2488610843499
4	1327	12.18	5.9777883706592
4	1328	12.19	3.4122743235078
4	1329	12.2	3.5091277056051
4	1330	12.21	2.9500190120292
4	1331	12.22	4.6255707796545
4	1332	12.23	3.6079372053073
4	1333	12.24	6.4082753079257
4	1334	12.25	3.8462664831652
4	1335	12.26	2.878320530059
4	1336	12.27	5.4303960164435
4	1337	12.28	4.5433290337496
4	1338	12.29	2.8876075147346
4	1339	12.3	7.2432594612911
4	1340	12.31	2.0117478316865
4	1341	12.32	3.954619712753
4	1342	12.33	6.5587998315619
4	1343	12.34	2.6013709296305
4	1344	12.35	5.7321993259088
4	1345	12.36	3.9777815891716
4	1346	12.37	2.7025523369442
4	1347	12.38	7.0244994883811
4	1348	12.39	1.0571841988052
4	1349	12.4	5.7507722621828
4	1350	12.41	4.5763131520001
4	1351	12.42	4.1349418309481
4	1352	12.43	3.998968084552
4	1353	12.44	5.2979745322272
4	1354	12.45	2.4420455861417
4	1355	12.46	4.6297502431646
4	1356	12.47	6.3597826856022
4	1357	12.48	2.3512849241258
4	1358	12.49	5.2448420415105
4	1359	12.5	3.9821646444189
4	1360	12.51	4.5120174299645
4	1361	12.52	4.2993185850958
4	1362	12.53	4.1147988878526
4	1363	12.54	4.8634842125223
4	1364	12.55	4.8873048008332
4	1365	12.56	1.1371983173167
4	1366	12.57	5.6262710835598
4	1367	12.58	3.8923563851942
4	1368	12.59	4.8624666844359
4	1369	12.6	5.7327866792369
4	1370	12.61	4.4469477560372
4	1380	12.62	4.5574953862946
4	1381	12.63	2.6202343375839
4	1382	12.64	5.6653238713553
4	1383	12.65	2.5266954324946
4	1384	12.66	6.1939564120251
4	1385	12.67	1.2281253005609
4	1386	12.68	5.7684535216027
4	1387	12.69	2.7973107674612
4	1388	12.7	5.7379353485066
4	1389	12.71	3.5252058560548
4	1390	12.72	5.1890650267922
4	1391	12.73	5.7046860650632
4	1392	12.74	3.8696768542721
4	1393	12.75	4.5518439773662
4	1394	12.76	2.9930848802622
4	1395	12.77	5.1222041467336
4	1396	12.78	2.4853466252212
4	1397	12.79	3.5955284802379
4	1398	12.8	7.6569024924995
4	1399	12.81	1.7548043176143
4	1400	12.82	5.9500487166102
4	1401	12.83	4.3270257033947
4	1402	12.84	3.3305163052282
4	1403	12.85	2.974755045442
4	1404	12.86	5.0117723001484
4	1405	12.87	3.6575028117777
4	1406	12.88	3.9768590198743
4	1407	12.89	6.7279767822418
4	1408	12.9	3.6061888157962
4	1409	12.91	4.4859391897534
4	1410	12.92	2.1266678109937
4	1411	12.93	6.1111723969185
4	1412	12.94	3.3104246373947
4	1413	12.95	5.7569433140251
4	1414	12.96	5.3533861681809
4	1415	12.97	1.1740075392402
4	1416	12.98	5.7988332593951
4	1417	12.99	3.6387629870461
4	1418	13	3.1982765604256
4	1419	13.01	7.5090307705018
4	1420	13.02	2.664215817024
4	1421	13.03	4.2463172475023
4	1422	13.04	6.0279291523414
4	1423	13.05	3.522646854815
4	1424	13.06	4.7134389110132
4	1425	13.07	3.5146615032471
4	1426	13.08	5.0258343953218
4	1427	13.09	3.728204438424
4	1428	13.1	4.2897407672912
4	1429	13.11	3.0958729737391
4	1430	13.12	4.0587339608255
4	1431	13.13	4.3757767400786
4	1432	13.14	6.0120274273069
4	1433	13.15	4.619541007674
4	1434	13.16	3.0520151008375
4	1435	13.17	2.6966707519535
4	1436	13.18	4.5273709388249
4	1437	13.19	4.5842515354325
4	1438	13.2	5.2252616232688
4	1439	13.21	4.0238633297527
4	1440	13.22	3.6506304846128
4	1441	13.23	4.0899001984823
4	1442	13.24	4.3233878891673
4	1443	13.25	6.8491215075405
4	1444	13.26	4.0000800559906
4	1445	13.27	2.7520187423368
4	1446	13.28	5.2861443538813
4	1447	13.29	2.324656810437
4	1448	13.3	4.2655987240656
4	1449	13.31	6.5477061979928
4	1450	13.32	2.6677659059697
4	1451	13.33	3.1820431536664
4	1452	13.34	6.9559005883938
4	1453	13.35	4.7238307575049
4	1454	13.36	4.3695422705991
4	1455	13.37	3.848005773674
4	1456	13.38	4.8947133677781
4	1457	13.39	2.9171516709591
4	1458	13.4	2.5566767248487
4	1459	13.41	5.1043441609349
4	1460	13.42	6.4737806817086
4	1461	13.43	2.8112220166089
4	1462	13.44	4.0460334061431
4	1463	13.45	3.2982166389604
4	1464	13.46	5.0626570385671
4	1465	13.47	3.1988915607817
4	1466	13.48	7.5055447366214
4	1467	13.49	3.3138839147117
4	1468	13.5	3.2322278027535
4	1469	13.51	2.8011748352468
4	1470	13.52	5.9635322195007
4	1471	13.53	5.940886238082
4	1472	13.54	1.6253895618773
4	1473	13.55	5.1408005347126
4	1474	13.56	2.8144206855135
4	1475	13.57	5.071342094551
4	1476	13.58	3.5231901408371
4	1477	13.59	7.5022319387195
4	1478	13.6	1.3224886989225
4	1479	13.61	6.8526350506074
4	1489	13.62	4.0608279029598
4	1490	13.63	5.0241341438744
4	1491	13.64	4.073265753926
4	1492	13.65	2.3029340948164
4	1493	13.66	3.0499478756079
4	1494	13.67	6.4103737675063
4	1495	13.68	2.1434655192635
4	1496	13.69	7.7934624302597
4	1497	13.7	2.7166374705693
4	1498	13.71	2.418880251122
4	1499	13.72	4.6889039882271
4	1500	13.73	4.8732416714172
4	1501	13.74	5.8358396852204
4	1502	13.75	4.0198095269879
4	1503	13.76	4.1145943937516
4	1504	13.77	4.5004353597525
4	1505	13.78	4.9707247551123
4	1506	13.79	1.8030725430561
4	1507	13.8	4.9720340902956
4	1508	13.81	5.1196118597865
4	1509	13.82	4.8345106274908
4	1510	13.83	3.3998817990094
4	1511	13.84	3.2634610078103
4	1512	13.85	6.8977468770037
4	1513	13.86	2.9335074529952
4	1514	13.87	4.8478577672311
4	1515	13.88	4.8228110874293
4	1516	13.89	2.5696228166322
4	1517	13.9	5.0442060973785
4	1518	13.91	2.895676079552
4	1519	13.92	4.0843664222161
4	1520	13.93	5.1825903081917
4	1521	13.94	3.9500770681296
4	1522	13.95	4.1130968460636
4	1523	13.96	5.85687995815
4	1524	13.97	1.9829991344201
4	1525	13.98	4.5356813866092
4	1526	13.99	7.4053892822718
4	1527	14	1.1405275539027
4	1528	14.01	6.3235151977705
4	1529	14.02	2.8875540009675
4	1530	14.03	6.7888429894506
4	1531	14.04	2.7459796573074
4	1532	14.05	3.0340089447508
4	1533	14.06	4.9000582104354
4	1534	14.07	3.0463342258862
4	1535	14.08	4.8182377196048
4	1536	14.09	6.9503373953401
4	1537	14.1	2.6381955575669
4	1538	14.11	2.6523905824699
4	1539	14.12	7.5994926049452
4	1540	14.13	3.3616920751202
4	1541	14.14	4.111606615585
4	1542	14.15	3.6526204814518
4	1543	14.16	3.1767000169194
4	1544	14.17	3.769691845886
4	1545	14.18	5.3625025299353
4	1546	14.19	5.7616579681104
4	1547	14.2	3.8166332327417
4	1548	14.21	2.6615934139669
4	1549	14.22	4.4660963826289
4	1550	14.23	6.6655297654635
4	1551	14.24	2.8334899449
4	1552	14.25	5.9882084790355
4	1553	14.26	3.8485319046184
4	1554	14.27	3.9782212730169
4	1555	14.28	2.1341074365378
4	1556	14.29	4.7750739128301
4	1557	14.3	3.6159885482667
4	1558	14.31	6.5752282503788
4	1559	14.32	2.3868179195305
4	1560	14.33	5.1003581807019
4	1561	14.34	3.8688831745809
4	1562	14.35	3.6296043915167
4	1563	14.36	4.2465975256507
4	1564	14.37	6.2332311940337
4	1565	14.38	3.2142834007941
4	1566	14.39	3.5048389419467
4	1567	14.4	6.3887582078432
4	1568	14.41	2.8508123858488
4	1569	14.42	4.524491229014
4	1570	14.43	4.62674841496
4	1571	14.44	5.6339987995915
4	1572	14.45	2.0137942133031
4	1573	14.46	4.3578265331168
4	1574	14.47	5.6611877309
4	1575	14.48	2.174471593612
4	1576	14.49	7.5416778476354
4	1577	14.5	1.0960779495183
4	1578	14.51	4.2588801845023
4	1579	14.52	6.1836936110858
4	1580	14.53	4.9204365973464
4	1581	14.54	2.6024964455925
4	1582	14.55	3.9368987528744
4	1583	14.56	4.8613537461329
4	1584	14.57	3.6522500296503
4	1585	14.58	4.6216543733546
4	1586	14.59	6.2490158998874
4	1587	14.6	3.8924895637813
4	1588	14.61	4.408407906632
4	1598	14.62	3.5435465618671
4	1599	14.63	2.7495007992623
4	1600	14.64	6.4704036785273
4	1601	14.65	2.2869917188993
4	1602	14.66	3.8603342573339
4	1603	14.67	7.0676557521728
4	1604	14.68	2.1748696932313
4	1605	14.69	0.973
4	1606	14.7	0.973
4	1607	14.71	0.973
4	1608	14.72	0.973
4	1609	14.73	0.973
4	1610	14.74	0.973
4	1611	14.75	0.973
4	1612	14.76	0.973
4	1613	14.77	0.973
4	1614	14.78	0.973
4	1615	14.79	0.973
4	1616	14.8	0.973
4	1617	14.81	0.973
4	1618	14.82	0.973
4	1619	14.83	0.973
4	1620	14.84	0.973
4	1621	14.85	0.973
4	1622	14.86	0.973
4	1623	14.87	0.973
4	1624	14.88	0.973
4	1625	14.89	0.973
4	1626	14.9	0.973
4	1627	14.91	0.973
4	1628	14.92	0.973
4	1629	14.93	0.973
4	1630	14.94	0.973
4	1631	14.95	0.973
4	1632	14.96	0.973
4	1633	14.97	0.973
4	1634	14.98	0.973
4	1635	14.99	0.973
4	1636	15	0.973
4	1637	15.01	0.973
4	1638	15.02	0.973
4	1639	15.03	0.973
4	1640	15.04	0.973
4	1641	15.05	0.973
4	1642	15.06	0.973
4	1643	15.07	0.973
4	1644	15.08	0.973
4	1645	15.09	0.973
4	1646	15.1	0.973
4	1647	15.11	0.973
4	1648	15.12	0.973
4	1649	15.13	0.973
4	1650	15.14	0.973
4	1651	15.15	0.973
4	1652	15.16	0.973
4	1653	15.17	0.973
4	1654	15.18	0.973
4	1655	15.19	0.973
4	1656	15.2	0.973
4	1657	15.21	0.973
4	1658	15.22	0.973
4	1659	15.23	0.973
4	1660	15.24	0.973
4	1661	15.25	0.973
4	1662	15.26	0.973
4	1663	15.27	0.973
4	1664	15.28	0.973
4	1665	15.29	0.973
4	1666	15.3	0.973
4	1667	15.31	0.973
4	1668	15.32	0.973
4	1669	15.33	0.973
4	1670	15.34	0.973
4	1671	15.35	0.973
4	1672	15.36	0.973
4	1673	15.37	0.973
4	1674	15.38	0.973
4	1675	15.39	0.973
4	1676	15.4	0.973
4	1677	15.41	0.973
4	1678	15.42	0.973
4	1679	15.43	0.973
4	1680	15.44	0.973
4	1681	15.45	0.973
4	1682	15.46	0.973
4	1683	15.47	0.973
4	1684	15.48	0.973
4	1685	15.49	0.973
4	1686	15.5	0.973
4	1687	15.51	0.973
4	1688	15.52	0.973
4	1689	15.53	0.973
4	1690	15.54	0.973
4	1691	15.55	0.973
4	1692	15.56	0.973
4	1693	15.57	0.973
4	1694	15.58	0.973
4	1695	15.59	0.973
4	1696	15.6	0.973
4	1697	15.61	0.973
4	1707	15.62	0.973
4	1708	15.63	0.973
4	1709	15.64	0.973
4	1710	15.65	0.973
4	1711	15.66	0.973
4	1712	15.67	0.973
4	1713	15.68	0.973
4	1714	15.69	0.973
4	1715	15.7	0.973
4	1716	15.71	0.973
4	1717	15.72	0.973
4	1718	15.73	0.973
4	1719	15.74	0.973
4	1720	15.75	0.973
4	1721	15.76	0.973
4	1722	15.77	0.973
4	1723	15.78	0.973
4	1724	15.79	0.042404234383185
4	1725	15.8	0.16936004140635
4	1726	15.81	0.30478865771795
4	1727	15.82	0.43393497465138
4	1728	15.83	0.55195958771024
4	1729	15.84	0.68005341661206
4	1730	15.85	0.8027843161786
4	1731	15.86	0.92095348146139
4	1732	15.87	1.0431803340877
4	1733	15.88	1.1539003117263
4	1734	15.89	1.2671580371057
4	1735	15.9	1.3783150717895
4	1736	15.91	1.4946573330482
4	1737	15.92	1.6051935468768
4	1738	15.93	1.7056979172075
4	1739	15.94	1.8069635301701
4	1740	15.95	1.9055133404154
4	1741	15.96	2.0032080966619
4	1742	15.97	2.1081618352257
4	1743	15.98	2.2142515117296
4	1744	15.99	2.3106703616956
4	1745	16	2.4150270527072
4	1746	16.01	2.507272278889
4	1747	16.02	2.6066355134268
4	1748	16.03	2.6946677538696
4	1749	16.04	2.7932214834439
4	1750	16.05	2.8866016537933
4	1751	16.06	2.9755761182003
4	1752	16.07	3.0626947041605
4	1753	16.08	3.1469106587525
4	1754	16.09	3.2335643289611
4	1755	16.1	3.3140080878509
4	1756	16.11	3.4020594341506
4	1757	16.12	3.4839072542923
4	1758	16.13	3.5620704439419
4	1759	16.14	3.6365394458946
4	1760	16.15	3.7197607358848
4	1761	16.16	3.7999384027612
4	1762	16.17	3.8806597305542
4	1763	16.18	3.9635006897446
4	1764	16.19	4.0448087730552
4	1765	16.2	4.1139473112278
4	1766	16.21	4.187775526557
4	1767	16.22	4.2546632678288
4	1768	16.23	4.3246975076575
4	1769	16.24	4.3999081920291
4	1770	16.25	4.4747433248074
4	1771	16.26	4.539096460686
4	1772	16.27	4.6105347869563
4	1773	16.28	4.6738851299296
4	1774	16.29	4.7407994748935
4	1775	16.3	4.8046059764663
4	1776	16.31	4.8702203727001
4	1777	16.32	4.930880799107
4	1778	16.33	4.9989841412078
4	1779	16.34	5.0661870361234
4	1780	16.35	5.1268561665634
4	1781	16.36	5.1876741413843
4	1782	16.37	5.2448939470264
4	1783	16.38	5.3060746669835
4	1784	16.39	5.3593772560331
4	1785	16.4	5.4139533983232
4	1786	16.41	5.476884378311
4	1787	16.42	5.5285426033322
4	1788	16.43	5.5849232699711
4	1789	16.44	5.6436473083353
4	1790	16.45	5.6960991402103
4	1791	16.46	5.7482012010359
4	1792	16.47	5.7972745869944
4	1793	16.48	5.8452733987018
4	1794	16.49	5.897110373606
4	1795	16.5	5.9493546867346
4	1796	16.51	6.0056307652183
4	1797	16.52	6.056597902602
4	1798	16.53	6.1060690541464
4	1799	16.54	6.152528066946
4	1800	16.55	6.2039283668527
4	1801	16.56	6.2510351722579
4	1802	16.57	6.2977988513278
4	1803	16.58	6.3447125353212
4	1804	16.59	6.3940657135175
4	1805	16.6	6.4366263239692
4	1806	16.61	6.4771118442595
4	1816	16.62	6.5201870054284
4	1817	16.63	6.5626020787809
4	1818	16.64	6.6038239598784
4	1819	16.65	6.652087405649
4	1820	16.66	6.6918177439332
4	1821	16.67	6.7348853406531
4	1822	16.68	6.7713379844639
4	1823	16.69	6.8118255887953
4	1824	16.7	6.8503499506718
4	1825	16.71	6.8893009119495
4	1826	16.72	6.9240244701284
4	1827	16.73	6.9625719740793
4	1828	16.74	6.9991872621079
4	1829	16.75	7.0405973356707
4	1830	16.76	7.0766067257013
4	1831	16.77	7.1143259589973
4	1832	16.78	7.1539536587894
4	1833	16.79	7.1894330460736
4	1834	16.8	7.228828138323
4	1835	16.81	7.2638065971773
4	1836	16.82	7.3014450932366
4	1837	16.83	7.3409343717795
4	1838	16.84	7.3737448583536
4	1839	16.85	7.4038383260701
4	1840	16.86	7.4386824114781
4	1841	16.87	7.4757566499473
4	1842	16.88	7.5088517963641
4	1843	16.89	7.5405376969399
4	1844	16.9	7.5755598335399
4	1845	16.91	7.6015312841994
4	1846	16.92	7.6346462232333
4	1847	16.93	7.6625457843653
4	1848	16.94	7.6899062132282
4	1849	16.95	7.7192486276188
4	1850	16.96	7.7483359323249
4	1851	16.97	7.7731532551249
4	1852	16.98	7.7979036327754
4	1853	16.99	7.8231102125809
4	1854	17	7.8471894637189
4	1855	17.01	7.8724492200899
4	1856	17.02	7.8950290092073
4	1857	17.03	7.9252794687794
4	1858	17.04	7.9555923815197
4	1859	17.05	7.9795303466631
4	1860	17.06	8.0020471640804
4	1861	17.07	8.03114726519
4	1862	17.08	8.0540257337736
4	1863	17.09	8.0772676708988
4	1864	17.1	8.0991644863637
4	1865	17.11	8.1279989549219
4	1866	17.12	8.1538729347357
4	1867	17.13	8.1788679471917
4	1868	17.14	8.198958261451
4	1869	17.15	8.2233616840967
4	1870	17.16	8.244765202403
4	1871	17.17	8.2664490118045
4	1872	17.18	8.2898904593082
4	1873	17.19	8.31646752953
4	1874	17.2	8.3384047804911
4	1875	17.21	8.3568531230888
4	1876	17.22	8.3784907658921
4	1877	17.23	8.397418518401
4	1878	17.24	8.4171085645526
4	1879	17.25	8.4381555380023
4	1880	17.26	8.4556690378753
4	1881	17.27	8.4739645560738
4	1882	17.28	8.4984947266568
4	1883	17.29	8.5171015984759
4	1884	17.3	8.5419368132658
4	1885	17.31	8.566174480002
4	1886	17.32	8.5842844711718
4	1887	17.33	8.6009987404355
4	1888	17.34	8.6214751571245
4	1889	17.35	8.6380366019506
4	1890	17.36	8.6608687967894
4	1891	17.37	8.674245359056
4	1892	17.38	8.6947840776904
4	1893	17.39	8.711858583354
4	1894	17.4	8.7290566779383
4	1895	17.41	8.7494709614302
4	1896	17.42	8.7702353555573
4	1897	17.43	8.7839095891957
4	1898	17.44	8.7990584484167
4	1899	17.45	8.8196314440387
4	1900	17.46	8.8357426099884
4	1901	17.47	8.8521348108713
4	1902	17.48	8.8647714781266
4	1903	17.49	8.8780025786955
4	1904	17.5	8.8941183069036
4	1905	17.51	8.9060582554548
4	1906	17.52	8.9237727463473
4	1907	17.53	8.9347586434171
4	1908	17.54	8.9492774843918
4	1909	17.55	8.961430486236
4	1910	17.56	8.9770836885646
4	1911	17.57	8.9871270947725
4	1912	17.58	9.0008497517591
4	1913	17.59	9.0170623661875
4	1914	17.6	9.0353224769912
4	1915	17.61	9.0445310490416
4	1925	17.62	9.0541227112297
4	1926	17.63	9.0619898947018
4	1927	17.64	9.0714381721949
4	1928	17.65	9.0841139472654
4	1929	17.66	9.1012625151756
4	1930	17.67	9.1132658585114
4	1931	17.68	9.1267937301145
4	1932	17.69	9.1336438565238
4	1933	17.7	9.140333249727
4	1934	17.71	9.1471616982007
4	1935	17.72	9.1593222254315
4	1936	17.73	9.1734093563703
4	1937	17.74	9.1857362668255
4	1938	17.75	9.197790658608
4	1939	17.76	9.2050258222697
4	1940	17.77	9.2204040565356
4	1941	17.78	9.2318697299286
4	1942	17.79	9.2464668785137
4	1943	17.8	9.2559518714704
4	1944	17.81	9.2698629705399
4	1945	17.82	9.2757827997737
4	1946	17.83	9.2854174396778
4	1947	17.84	9.2956071550791
4	1948	17.85	9.3004811581712
4	1949	17.86	9.3083852202435
4	1950	17.87	9.3145401663768
4	1951	17.88	9.3204077568192
4	1952	17.89	9.3283277053795
4	1953	17.9	9.3369707792792
4	1954	17.91	9.3455190294114
4	1955	17.92	9.3517049204919
4	1956	17.93	9.3605826568257
4	1957	17.94	9.3683655037425
4	1958	17.95	9.3771937469553
4	1959	17.96	9.3844283411305
4	1960	17.97	9.3926618710769
4	1961	17.98	9.4007317921539
4	1962	17.99	9.4086344009761
4	1963	18	9.4115388019044
4	1964	18.01	9.4146108310883
4	1965	18.02	9.4173255047357
4	1966	18.03	9.4288790898277
4	1967	18.04	9.4356740554009
4	1968	18.05	9.4377372666016
4	1969	18.06	9.447328467292
4	1970	18.07	9.4494127256734
4	1971	18.08	9.4568913088564
4	1972	18.09	9.4676063803199
4	1973	18.1	9.471407509916
4	1974	18.11	9.472782893469
4	1975	18.12	9.4814301061385
4	1976	18.13	9.482409158104
4	1977	18.14	9.4841624777195
4	1978	18.15	9.4934480709339
4	1979	18.16	9.4951835176979
4	1980	18.17	9.5041663918668
4	1981	18.18	9.5059889547204
4	1982	18.19	9.5142002935769
4	1983	18.2	9.5144421452561
4	1984	18.21	9.5236148084343
4	1985	18.22	9.5300795872968
4	1986	18.23	9.5307933513096
4	1987	18.24	9.536737391394
4	1988	18.25	9.5436858881
4	1989	18.26	9.5473433662212
4	1990	18.27	9.5551564200581
4	1991	18.28	9.5583137639983
4	1992	18.29	9.5575504994801
4	1993	18.3	9.5648849722989
4	1994	18.31	9.5649448466917
4	1995	18.32	9.5686015520081
4	1996	18.33	9.5742264539912
4	1997	18.34	9.5745669584489
4	1998	18.35	9.5772898564872
4	1999	18.36	9.584296931766
4	2000	18.37	9.5846779383334
4	2001	18.38	9.5839241963775
4	2002	18.39	9.5909792749746
4	2003	18.4	9.5960141269077
4	2004	18.41	9.5963151841665
4	2005	18.42	9.5954900084841
4	2006	18.43	9.5943484021077
4	2007	18.44	9.5967207990262
4	2008	18.45	9.5952405522575
4	2009	18.46	9.6011070702462
4	2010	18.47	9.6063333922099
4	2011	18.48	9.6086677804901
4	2012	18.49	9.6114114430561
4	2013	18.5	9.6145780281442
4	2014	18.51	9.619916755571
4	2015	18.52	9.6260248363837
4	2016	18.53	9.6274085162188
4	2017	18.54	9.6254546674017
4	2018	18.55	9.6304196525385
4	2019	18.56	9.629437370472
4	2020	18.57	9.6284494694419
4	2021	18.58	9.6325574580265
4	2022	18.59	9.6369488035042
4	2023	18.6	9.6342061144687
4	2024	18.61	9.6345674512713
4	2034	18.62	9.6334737960473
4	2035	18.63	9.63386777207
4	2036	18.64	9.6363343008634
4	2037	18.65	9.6356095215103
4	2038	18.66	9.6382455209592
4	2039	18.67	9.6427689930344
4	2040	18.68	9.6404137501921
4	2041	18.69	9.6360932285393
4	2042	18.7	9.6397880659429
4	2043	18.71	9.6384696755434
4	2044	18.72	9.6384928864843
4	2045	18.73	9.6396430328906
4	2046	18.74	9.636835546793
4	2047	18.75	9.6371562869095
4	2048	18.76	9.6355757495231
4	2049	18.77	9.6356003566447
4	2050	18.78	9.6356896596526
4	2051	18.79	9.6383915486554
4	2052	18.8	9.6392001813478
4	2053	18.81	9.635338678641
4	2054	18.82	9.6327068748955
4	2055	18.83	9.6297457789105
4	2056	18.84	9.6288397150074
4	2057	18.85	9.6284199087696
4	2058	18.86	9.6287419106789
4	2059	18.87	9.6314874988257
4	2060	18.88	9.629303391026
4	2061	18.89	9.6252458140005
4	2062	18.9	9.622133529281
4	2063	18.91	9.6170643245054
4	2064	18.92	9.6127447938539
4	2065	18.93	9.6111435336093
4	2066	18.94	9.6094782460858
4	2067	18.95	9.6091381449825
4	2068	18.96	9.6114280774769
4	2069	18.97	9.6085938867596
4	2070	18.98	9.6062986686159
4	2071	18.99	9.6087990907863
4	2072	19	9.6044448575709
4	2073	19.01	9.6009422123064
4	2074	19.02	9.6027298846197
4	2075	19.03	9.6030445292017
4	2076	19.04	9.5997396612451
4	2077	19.05	9.5996907203363
4	2078	19.06	9.6025331052247
4	2079	19.07	9.604549448112
4	2080	19.08	9.5983937920888
4	2081	19.09	9.5924481003958
4	2082	19.1	9.5933966672953
4	2083	19.11	9.5954344544764
4	2084	19.12	9.5943677288564
4	2085	19.13	9.5968245864142
4	2086	19.14	9.5947493529887
4	2087	19.15	9.5953650493441
4	2088	19.16	9.5919902327379
4	2089	19.17	9.5869479355706
4	2090	19.18	9.5837721289021
4	2091	19.19	9.5773817319208
4	2092	19.2	9.571413992903
4	2093	19.21	9.5720759344887
4	2094	19.22	9.5691173046217
4	2095	19.23	9.5626847557237
4	2096	19.24	9.5620080260284
4	2097	19.25	9.5557072551637
4	2098	19.26	9.5551311846838
4	2099	19.27	9.553938733594
4	2100	19.28	9.5548409239677
4	2101	19.29	9.5492045426687
4	2102	19.3	9.544093418786
4	2103	19.31	9.5409226626873
4	2104	19.32	9.5359236823365
4	2105	19.33	9.5303376193849
4	2106	19.34	9.5288955691453
4	2107	19.35	9.5277571046883
4	2108	19.36	9.5251918388392
4	2109	19.37	9.5253972391296
4	2110	19.38	9.5214515355947
4	2111	19.39	9.5181612231382
4	2112	19.4	9.5122238303924
4	2113	19.41	9.5101937357574
4	2114	19.42	9.503546809381
4	2115	19.43	9.499943950693
4	2116	19.44	9.4990597451145
4	2117	19.45	9.4954043242772
4	2118	19.46	9.4868490646836
4	2119	19.47	9.4802376330935
4	2120	19.48	9.4738492792979
4	2121	19.49	9.4736856918828
4	2122	19.5	9.4662442773683
4	2123	19.51	9.4619797522874
4	2124	19.52	9.4546628829685
4	2125	19.53	9.4548422933897
4	2126	19.54	9.4503197829465
4	2127	19.55	9.4502410244765
4	2128	19.56	9.4488741241133
4	2129	19.57	9.4398519540334
4	2130	19.58	9.4375348968379
4	2131	19.59	9.4379557991222
4	2132	19.6	9.4379224633617
4	2133	19.61	9.432957753568
4	2143	19.62	9.4245800886793
4	2144	19.63	9.4205362391746
4	2145	19.64	9.4127133202001
4	2146	19.65	9.4044186328651
4	2147	19.66	9.3976632469985
4	2148	19.67	9.3894939955569
4	2149	19.68	9.3847701201662
4	2150	19.69	9.3768918412845
4	2151	19.7	9.370638533517
4	2152	19.71	9.3634739524525
4	2153	19.72	9.3577442537889
4	2154	19.73	9.3543198282073
4	2155	19.74	9.3534818884634
4	2156	19.75	9.3449583013444
4	2157	19.76	9.3394307839187
4	2158	19.77	9.3391553304268
4	2159	19.78	9.3300295179491
4	2160	19.79	9.3264496671548
4	2161	19.8	9.3183356647644
4	2162	19.81	9.3105168971531
4	2163	19.82	9.304765481903
4	2164	19.83	9.2955665541121
4	2165	19.84	9.2865796523224
4	2166	19.85	9.2799383206549
4	2167	19.86	9.2714720084512
4	2168	19.87	9.2695317179627
4	2169	19.88	9.2680787182918
4	2170	19.89	9.2610793558379
4	2171	19.9	9.2604287744917
4	2172	19.91	9.2561888654947
4	2173	19.92	9.2526509741992
4	2174	19.93	9.2435254948856
4	2175	19.94	9.2415479986093
4	2176	19.95	9.2405138333519
4	2177	19.96	9.2391241190085
4	2178	19.97	9.2324716923204
4	2179	19.98	9.2229243785776
4	2180	19.99	9.2193354391191
4	2181	20	9.2173484186597
4	2182	20.01	9.2164272894823
4	2183	20.02	9.2125796401712
4	2184	20.03	9.2102383998051
4	2185	20.04	9.2043270244311
4	2186	20.05	9.1971634056281
4	2187	20.06	9.1930647069718
4	2188	20.07	9.1877911765801
4	2189	20.08	9.1778609617425
4	2190	20.09	9.172754173218
4	2191	20.1	9.1706001258011
4	2192	20.11	9.1606374830412
4	2193	20.12	9.1587976351383
4	2194	20.13	9.1530217636555
4	2195	20.14	9.1504850979981
4	2196	20.15	9.1443392117608
4	2197	20.16	9.1387152913624
4	2198	20.17	9.1325007585451
4	2199	20.18	9.1275526807645
4	2200	20.19	9.1182419241393
4	2201	20.2	9.1099561683373
4	2202	20.21	9.1056522463054
4	2203	20.22	9.1014258473561
4	2204	20.23	9.0913438093667
4	2205	20.24	9.0883569270478
4	2206	20.25	9.083253297898
4	2207	20.26	9.0797177019664
4	2208	20.27	9.071116821266
4	2209	20.28	9.0672112992863
4	2210	20.29	9.0595096300568
4	2211	20.3	9.0496024465585
4	2212	20.31	9.040319846867
4	2213	20.32	9.0369186434213
4	2214	20.33	9.0338406839561
4	2215	20.34	9.0305684671023
4	2216	20.35	9.0240471330445
4	2217	20.36	9.0202908007445
4	2218	20.37	9.0127506669366
4	2219	20.38	9.0060427110723
4	2220	20.39	8.9995994671228
4	2221	20.4	8.9953515190114
4	2222	20.41	8.988841104085
4	2223	20.42	8.9784300093923
4	2224	20.43	8.9749422273937
4	2225	20.44	8.9650298234089
4	2226	20.45	8.9587617174627
4	2227	20.46	8.9567568714301
4	2228	20.47	8.9476237002556
4	2229	20.48	8.9449031667128
4	2230	20.49	8.9411545766298
4	2231	20.5	8.9395235946416
4	2232	20.51	8.9342603101138
4	2233	20.52	8.923720222095
4	2234	20.53	8.9206370636812
4	2235	20.54	8.9169347903417
4	2236	20.55	8.9114805892222
4	2237	20.56	8.9049728308928
4	2238	20.57	8.9014175640883
4	2239	20.58	8.8993392054179
4	2240	20.59	8.8963921408094
4	2241	20.6	8.8878562850867
4	2242	20.61	8.8809016924605
4	2252	20.62	8.8730492718648
4	2253	20.63	8.8690632743931
4	2254	20.64	8.8673402072257
4	2255	20.65	8.8615469189727
4	2256	20.66	8.8564753468195
4	2257	20.67	8.8489753126685
4	2258	20.68	8.8391091395951
4	2259	20.69	8.8292790698351
4	2260	20.7	8.8272295710846
4	2261	20.71	8.8176796452254
4	2262	20.72	8.8077105171424
4	2263	20.73	8.8023575073564
4	2264	20.74	8.7944710556405
4	2265	20.75	8.7918373203544
4	2266	20.76	8.7831439698727
4	2267	20.77	8.7786772679571
4	2268	20.78	8.7760983592687
4	2269	20.79	8.7741291482784
4	2270	20.8	0.973
4	2271	20.81	0.973
4	2272	20.82	0.973
4	2273	20.83	0.973
4	2274	20.84	0.973
4	2275	20.85	0.973
4	2276	20.86	9.7118170935829
4	2277	20.87	9.6999793782276
4	2278	20.88	9.6923318885265
4	2279	20.89	9.6830489933218
4	2280	20.9	9.6696212572135
4	2281	20.91	9.6604161893838
4	2282	20.92	9.6450675642933
4	2283	20.93	9.6344765858166
4	2284	20.94	9.6221136483322
4	2285	20.95	9.6135901085724
4	2286	20.96	9.6047420160629
4	2287	20.97	9.5923513426229
4	2288	20.98	9.5780428130788
4	2289	20.99	9.5717137604894
4	2290	21	9.5586246749218
4	2291	21.01	9.545753456652
4	2292	21.02	9.5321704375191
4	2293	21.03	9.5221987095464
4	2294	21.04	9.5151776917959
4	2295	21.05	9.5054272599468
4	2296	21.06	9.4908547962038
4	2297	21.07	9.4834240119273
4	2298	21.08	9.475643340775
4	2299	21.09	9.4688600634858
4	2300	21.1	9.4564705086164
4	2301	21.11	9.4445628449341
4	2302	21.12	9.4349857036969
4	2303	21.13	9.4252504642074
4	2304	21.14	9.4181820682458
4	2305	21.15	9.4122520689015
4	2306	21.16	9.4043933339598
4	2307	21.17	6.1350403883864
4	2308	21.18	4.3688393676428
4	2309	21.19	4.3596465599392
4	2310	21.2	4.3513073358907
4	2311	21.21	4.355879228032
4	2312	21.22	4.3684225091974
4	2313	21.23	4.3693028614058
4	2314	21.24	4.3700856070803
4	2315	21.25	4.3583990599872
4	2316	21.26	4.3433346750003
4	2317	21.27	4.3647446595211
4	2318	21.28	4.3637205915503
4	2319	21.29	4.353361368867
4	2320	21.3	4.3561717486824
4	2321	21.31	4.3564958639883
4	2322	21.32	4.362496789436
4	2323	21.33	4.3525966182847
4	2324	21.34	4.366797498249
4	2325	21.35	4.3425851145611
4	2326	21.36	4.3681443738598
4	2327	21.37	4.3685177579415
4	2328	21.38	4.3449414946398
4	2329	21.39	4.3562774063462
4	2330	21.4	4.3512334676428
4	2331	21.41	4.3481718572894
4	2332	21.42	4.344125397383
4	2333	21.43	4.3544623644789
4	2334	21.44	4.3553732098085
4	2335	21.45	4.3625893794686
4	2336	21.46	4.3483528132849
4	2337	21.47	4.342890580879
4	2338	21.48	4.3536648152305
4	2339	21.49	4.3623171218444
4	2340	21.5	4.3546947878236
4	2341	21.51	4.3627239352017
4	2342	21.52	4.3595779964537
4	2343	21.53	4.3569224307466
4	2344	21.54	4.3441314459528
4	2345	21.55	4.3488496435757
4	2346	21.56	4.3528829492393
4	2347	21.57	4.3610822948753
4	2348	21.58	4.3374493435707
4	2349	21.59	4.358054068373
4	2350	21.6	4.3638569336238
4	2351	21.61	4.3634949784572
4	2361	21.62	4.3550078965831
4	2362	21.63	4.3638760088684
4	2363	21.64	4.349823059916
4	2364	21.65	4.3527837052235
4	2365	21.66	4.339093299705
4	2366	21.67	4.3558468483714
4	2367	21.68	4.3367107332933
4	2368	21.69	4.3539211263079
4	2369	21.7	4.3503340215771
4	2370	21.71	4.3561666038566
4	2371	21.72	4.3537600158173
4	2372	21.73	4.3435128251688
4	2373	21.74	4.3578202334653
4	2374	21.75	4.3501846318898
4	2375	21.76	4.3586069592693
4	2376	21.77	4.3586510372678
4	2377	21.78	4.3388300298603
4	2378	21.79	4.3435041788574
4	2379	21.8	4.3413417605606
4	2380	21.81	4.3418039767819
4	2381	21.82	4.3414936730497
4	2382	21.83	4.3430268283435
4	2383	21.84	4.3574708417951
4	2384	21.85	4.3599788560228
4	2385	21.86	4.3354866712738
4	2386	21.87	4.3446574921574
4	2387	21.88	4.3418963119121
4	2388	21.89	4.3488203132395
4	2389	21.9	4.3432178958635
4	2390	21.91	4.3372013366955
4	2391	21.92	4.3533308428885
4	2392	21.93	4.3573101520036
4	2393	21.94	4.3326066310422
4	2394	21.95	4.3424830456314
4	2395	21.96	4.3412258501248
4	2396	21.97	4.33572377056
4	2397	21.98	4.346018141721
4	2398	21.99	4.3380157009927
4	2399	22	4.339022559978
4	2400	22.01	4.3311732860748
4	2401	22.02	4.3563704900663
4	2402	22.03	4.3532941967742
4	2403	22.04	4.3583528088018
4	2404	22.05	4.3380603584609
4	2405	22.06	4.3433337905233
4	2406	22.07	4.3545422339563
4	2407	22.08	4.339603659561
4	2408	22.09	4.3478957718876
4	2409	22.1	4.3360284042668
4	2410	22.11	4.340936639808
4	2411	22.12	4.3560771362217
4	2412	22.13	4.3340403012366
4	2413	22.14	4.3477323375518
4	2414	22.15	4.3314009556274
4	2415	22.16	4.3515913222003
4	2416	22.17	4.3489263781668
4	2417	22.18	4.3428656065958
4	2418	22.19	4.3536613974439
4	2419	22.2	4.3435758486992
4	2420	22.21	4.3347648175303
4	2421	22.22	4.3455551988709
4	2422	22.23	4.3471051056986
4	2423	22.24	4.3531040427054
4	2424	22.25	4.3474542152429
4	2425	22.26	4.3450406581825
4	2426	22.27	4.3500126862189
4	2427	22.28	4.3418278929524
4	2428	22.29	4.3367901712619
4	2429	22.3	4.3545141917687
4	2430	22.31	4.3396963538138
4	2431	22.32	4.3403683033471
4	2432	22.33	4.3410074426577
4	2433	22.34	4.3513026028393
4	2434	22.35	4.3496409916785
4	2435	22.36	4.3271671922046
4	2436	22.37	4.3325011895684
4	2437	22.38	4.3470972430559
4	2438	22.39	4.341984224239
4	2439	22.4	4.3386350746896
4	2440	22.41	4.3465825251648
4	2441	22.42	4.338208422249
4	2442	22.43	4.3322591090454
4	2443	22.44	4.3435985086765
4	2444	22.45	4.3361751695135
4	2445	22.46	4.3436955154159
4	2446	22.47	4.3312020825032
4	2447	22.48	4.3387385306012
4	2448	22.49	4.3328380186586
4	2449	22.5	4.3462578723357
4	2450	22.51	4.3346001877289
4	2451	22.52	4.3303714637574
4	2452	22.53	4.3472687262858
4	2453	22.54	4.3402236290087
4	2454	22.55	4.3512967457225
4	2455	22.56	4.345406774522
4	2456	22.57	4.3470983719019
4	2457	22.58	4.3294326912862
4	2458	22.59	4.335533011322
4	2459	22.6	4.3261725662881
4	2460	22.61	4.3276526178142
4	2470	22.62	4.3261249489228
4	2471	22.63	4.3498754022729
4	2472	22.64	4.3458429569597
4	2473	22.65	4.3478747074017
4	2474	22.66	4.3459409920706
4	2475	22.67	4.3282763760335
4	2476	22.68	4.3390800630103
4	2477	22.69	4.3485916107099
4	2478	22.7	4.3275663450618
4	2479	22.71	4.3310097215258
4	2480	22.72	4.3266952766918
4	2481	22.73	4.3231658814528
4	2482	22.74	4.3355410926856
4	2483	22.75	4.3397472241024
4	2484	22.76	4.3433598130694
4	2485	22.77	4.3389974776803
4	2486	22.78	4.3250785273111
4	2487	22.79	4.3305039013261
4	2488	22.8	4.341484173938
4	2489	22.81	4.3313218296548
4	2490	22.82	4.3258444524407
4	2491	22.83	4.3453550741896
4	2492	22.84	4.3319169783378
4	2493	22.85	4.3399070262567
4	2494	22.86	4.3423268716222
4	2495	22.87	4.3229744152774
4	2496	22.88	4.3242765780151
4	2497	22.89	4.3336278288018
4	2498	22.9	4.3434314068617
4	2499	22.91	4.3307513271528
4	2500	22.92	4.3418068284831
4	2501	22.93	4.3404294424159
4	2502	22.94	4.3221088469282
4	2503	22.95	4.3229789753002
4	2504	22.96	4.3227244350422
4	2505	22.97	4.3197824701944
4	2506	22.98	4.3346585312334
4	2507	22.99	4.3276350119179
4	2508	23	4.3441522641994
4	2509	23.01	4.3239981540856
4	2510	23.02	4.3304536526729
4	2511	23.03	4.3384785229627
4	2512	23.04	4.3425431369397
4	2513	23.05	4.3352884362672
4	2514	23.06	4.3306607203336
4	2515	23.07	4.3428127772209
4	2516	23.08	4.3172755084683
4	2517	23.09	4.3432841570774
4	2518	23.1	4.3386785261766
4	2519	23.11	4.3362890843006
4	2520	23.12	4.3221292819458
4	2521	23.13	4.3341496124017
4	2522	23.14	4.3420925082043
4	2523	23.15	4.3346747357664
4	2524	23.16	4.3325613498122
4	2525	23.17	4.3249501602642
4	2526	23.18	4.3298621448406
4	2527	23.19	4.3252578651229
4	2528	23.2	4.3172709620574
4	2529	23.21	4.3425940325362
4	2530	23.22	4.3250419407865
4	2531	23.23	4.3242203100283
4	2532	23.24	4.317589815258
4	2533	23.25	4.3154918975684
4	2534	23.26	4.3193760297296
4	2535	23.27	4.3384704632882
4	2536	23.28	4.3260948069195
4	2537	23.29	4.3290376343651
4	2538	23.3	4.3156631740283
4	2539	23.31	4.3255724117049
4	2540	23.32	4.3334179519139
4	2541	23.33	4.3327197785153
4	2542	23.34	4.3271698297484
4	2543	23.35	4.3150190349452
4	2544	23.36	4.3185941015484
4	2545	23.37	4.3275088378202
4	2546	23.38	4.3238505874286
4	2547	23.39	4.3378200706959
4	2548	23.4	4.3320302848895
4	2549	23.41	4.3346798942605
4	2550	23.42	4.3237926065547
4	2551	23.43	4.3138170554777
4	2552	23.44	4.3191143127923
4	2553	23.45	4.3149948046077
4	2554	23.46	4.3269310361206
4	2555	23.47	4.3346362935367
4	2556	23.48	4.3285744344212
4	2557	23.49	4.3374122473632
4	2558	23.5	4.3356161746617
4	2559	23.51	4.3175060939473
4	2560	23.52	4.3355561033821
4	2561	23.53	4.3217708017321
4	2562	23.54	4.326901660309
4	2563	23.55	4.3335300468754
4	2564	23.56	4.3130363479165
4	2565	23.57	4.3228662941474
4	2566	23.58	4.3277549019487
4	2567	23.59	4.3171112276359
4	2568	23.6	4.3372228826359
4	2569	23.61	4.3320532329764
4	2579	23.62	4.3167231097636
4	2580	23.63	4.3244023745224
4	2581	23.64	4.3343081041259
4	2582	23.65	4.3343586127991
4	2583	23.66	4.3119154425421
4	2584	23.67	4.3151085820542
4	2585	23.68	4.3224143973
4	2586	23.69	4.3314511804925
4	2587	23.7	4.3268175824007
4	2588	23.71	4.3387690830288
4	2589	23.72	4.3122069216596
4	2590	23.73	4.3301406158117
4	2591	23.74	4.3234443494659
4	2592	23.75	4.3152726628514
4	2593	23.76	4.3300817677882
4	2594	23.77	4.3221183947638
4	2595	23.78	4.3327414755439
4	2596	23.79	4.3305225516485
4	2597	23.8	4.324451209515
4	2598	23.81	4.3329182756448
4	2599	23.82	4.3169647208213
4	2600	23.83	4.3115453719458
4	2601	23.84	4.3129365506623
4	2602	23.85	4.3206001805784
4	2603	23.86	4.3181642992343
4	2604	23.87	4.3230135235196
4	2605	23.88	4.3102660813783
4	2606	23.89	4.3328987812427
4	2607	23.9	4.3298588286791
4	2608	23.91	4.333615057262
4	2609	23.92	4.3252127824189
4	2610	23.93	4.3370343270954
4	2611	23.94	4.3310349635679
4	2612	23.95	4.3284000960548
4	2613	23.96	4.3204102181291
4	2614	23.97	4.3335067429036
4	2615	23.98	4.3292879890136
4	2616	23.99	4.3350119255459
4	2617	24	4.3247254151029
4	2618	24.01	4.333377577572
4	2619	24.02	4.3344041879266
4	2620	24.03	4.3097811532396
4	2621	24.04	4.3081367181941
4	2622	24.05	4.330282088694
4	2623	24.06	4.3234268600273
4	2624	24.07	4.3109462210316
4	2625	24.08	4.3337145353336
4	2626	24.09	4.3311330579477
4	2627	24.1	4.3224495948424
4	2628	24.11	4.322686616892
4	2629	24.12	4.3235334010857
4	2630	24.13	4.3266276998426
4	2631	24.14	4.3267080094505
4	2632	24.15	4.3251626243508
4	2633	24.16	4.3207271098289
4	2634	24.17	4.3340580547995
4	2635	24.18	4.3306171333726
4	2636	24.19	4.3119705560336
4	2637	24.2	4.321429726651
4	2638	24.21	4.3215968070068
4	2639	24.22	4.3328647101488
4	2640	24.23	4.3119835421916
4	2641	24.24	4.3096951003611
4	2642	24.25	4.3216647199269
4	2643	24.26	4.3076618970236
4	2644	24.27	4.3089153250241
4	2645	24.28	4.3178913561908
4	2646	24.29	4.3320117954432
4	2647	24.3	4.3180649226513
4	2648	24.31	4.3254026248151
4	2649	24.32	4.3133923605141
4	2650	24.33	4.3185007204728
4	2651	24.34	4.3236454461109
4	2652	24.35	4.3128181650697
4	2653	24.36	4.3139769685813
4	2654	24.37	4.3228552806707
4	2655	24.38	4.3307707206498
4	2656	24.39	4.3165728251585
4	2657	24.4	4.3228897528672
4	2658	24.41	4.3194655157428
4	2659	24.42	4.3284796680365
4	2660	24.43	4.3079155014149
4	2661	24.44	4.3150555662842
4	2662	24.45	4.3149045283276
4	2663	24.46	4.3078097362796
4	2664	24.47	4.3283733828688
4	2665	24.48	4.3233703990547
4	2666	24.49	4.3217775702273
4	2667	24.5	4.3108878891881
4	2668	24.51	4.3131444007057
4	2669	24.52	4.3260404903126
4	2670	24.53	4.3144891514313
4	2671	24.54	4.3127005437745
4	2672	24.55	4.3133063991828
4	2673	24.56	4.3175292519923
4	2674	24.57	4.3092196703196
4	2675	24.58	4.312182614141
4	2676	24.59	4.3272854550966
4	2677	24.6	4.3065588058539
4	2678	24.61	4.3275225048907
4	2688	24.62	4.3210791605792
4	2689	24.63	4.3311404138772
4	2690	24.64	4.3092502152469
4	2691	24.65	4.3186676030543
4	2692	24.66	4.3213110348314
4	2693	24.67	4.3271307868028
4	2694	24.68	4.3204804107643
4	2695	24.69	4.3242823228464
4	2696	24.7	4.3182225798657
4	2697	24.71	4.3227580142775
4	2698	24.72	4.3083499658958
4	2699	24.73	4.3119633928934
4	2700	24.74	4.3075515389917
4	2701	24.75	4.3026661247517
4	2702	24.76	4.3187934286943
4	2703	24.77	4.3116921192489
4	2704	24.78	4.3255159929916
4	2705	24.79	4.3140195159634
4	2706	24.8	4.3194632317049
4	2707	24.81	4.3238239302146
4	2708	24.82	4.3089330351139
4	2709	24.83	4.3108197609384
4	2710	24.84	4.3134173162581
4	2711	24.85	4.3213571360836
4	2712	24.86	4.3042509055455
4	2713	24.87	4.3221321345716
4	2714	24.88	4.3178091738675
4	2715	24.89	4.3096076105114
4	2716	24.9	4.3133894482804
4	2717	24.91	4.3215441062609
4	2718	24.92	4.3045186041657
4	2719	24.93	4.3041139965966
4	2720	24.94	4.308103307306
4	2721	24.95	4.3177141840847
4	2722	24.96	4.3233922399347
4	2723	24.97	4.3183441876409
4	2724	24.98	4.3099362707157
4	2725	24.99	4.3065197941439
4	2726	25	4.3083842323138
4	2727	25.01	4.3077459436716
4	2728	25.02	4.3148271666066
4	2729	25.03	4.3060427024216
4	2730	25.04	4.3093353113376
4	2731	25.05	4.3151276342136
4	2732	25.06	4.3210996137792
4	2733	25.07	4.3080813944275
4	2734	25.08	4.3274992609174
4	2735	25.09	4.3057466853411
4	2736	25.1	4.3269705016011
4	2737	25.11	4.3092531785506
4	2738	25.12	4.3118919653464
4	2739	25.13	4.3069778012925
4	2740	25.14	4.3208012221462
4	2741	25.15	4.3168217321793
4	2742	25.16	4.3109752486556
4	2743	25.17	4.3001673970985
4	2744	25.18	4.3130380664029
4	2745	25.19	4.3263421195227
4	2746	25.2	4.3211176023057
4	2747	25.21	4.3236733642312
4	2748	25.22	4.3090654836488
4	2749	25.23	4.3172959877998
4	2750	25.24	4.314560737278
4	2751	25.25	4.3186662966229
4	2752	25.26	4.3120972420098
4	2753	25.27	4.3006623151753
4	2754	25.28	4.3153560163262
4	2755	25.29	4.2997423564116
4	2756	25.3	4.3048592786473
4	2757	25.31	4.3161273921892
4	2758	25.32	4.3140315837815
4	2759	25.33	4.3054336854592
4	2760	25.34	4.3239755425859
4	2761	25.35	4.3249167382115
4	2762	25.36	4.3084947834281
4	2763	25.37	4.3204407575678
4	2764	25.38	4.3149369220473
4	2765	25.39	4.3181312365462
4	2766	25.4	4.3053063717669
4	2767	25.41	4.3064175514685
4	2768	25.42	4.3114608366382
4	2769	25.43	4.3183393849318
4	2770	25.44	4.3038610027307
4	2771	25.45	4.3077070316546
4	2772	25.46	4.3109223741629
4	2773	25.47	4.3218649562604
4	2774	25.48	4.2982608047058
4	2775	25.49	4.307954379375
4	2776	25.5	4.3162106392235
4	2777	25.51	4.3127780898748
4	2778	25.52	4.311367020535
4	2779	25.53	4.3097220789762
4	2780	25.54	4.3016065447976
4	2781	25.55	4.3224102349256
4	2782	25.56	4.3074643152406
4	2783	25.57	4.2991561850205
4	2784	25.58	4.3243223080292
4	2785	25.59	4.3174359852792
4	2786	25.6	4.3242489148339
4	2787	25.61	4.3066806308786
4	2797	25.62	4.3049430944358
4	2798	25.63	4.3168476164849
4	2799	25.64	4.324681064399
4	2800	25.65	4.3180408608256
4	2801	25.66	4.3112323662771
4	2802	25.67	4.2987764434252
4	2803	25.68	4.2974547542546
4	2804	25.69	4.3219469139432
4	2805	25.7	4.3241861103238
4	2806	25.71	4.3073929544737
4	2807	25.72	4.3134891951765
4	2808	25.73	4.3121406802067
4	2809	25.74	4.3163963484829
4	2810	25.75	4.3132103714042
4	2811	25.76	4.3110796153736
4	2812	25.77	4.3226688925786
4	2813	25.78	4.3220926297587
4	2814	25.79	4.3067073773233
4	2815	25.8	4.3217057146131
4	2816	25.81	4.2962207927688
4	2817	25.82	4.2958184502153
4	2818	25.83	4.3103135003907
4	2819	25.84	4.3042017510717
4	2820	25.85	4.3122229421727
4	2821	25.86	4.3023170378927
4	2822	25.87	4.3052597333058
4	2823	25.88	4.3042155645425
4	2824	25.89	4.3170634140018
4	2825	25.9	4.3119124476686
4	2826	25.91	4.3145241119017
4	2827	25.92	4.3176393647473
4	2828	25.93	4.306047768431
4	2829	25.94	4.3007838479074
4	2830	25.95	4.32126759734
4	2831	25.96	4.3165785690204
4	2832	25.97	4.3037070328941
4	2833	25.98	4.3106405311448
4	2834	25.99	4.3176741790746
4	2835	26	4.3043684966774
4	2836	26.01	4.2991332576641
4	2837	26.02	4.3133347751271
4	2838	26.03	4.3123080111035
4	2839	26.04	4.3136194865602
4	2840	26.05	4.3170315004867
4	2841	26.06	4.3136331057012
4	2842	26.07	4.3215169424336
4	2843	26.08	4.3044054053088
4	2844	26.09	4.2960998656898
4	2845	26.1	4.3031146477525
4	2846	26.11	4.3126820150609
4	2847	26.12	4.2957939794895
4	2848	26.13	4.3216491677312
4	2849	26.14	4.3034775325774
4	2850	26.15	4.2950731523659
4	2851	26.16	4.2975274164795
4	2852	26.17	4.3022883010897
4	2853	26.18	4.3176371609201
4	2854	26.19	4.3188389553961
4	2855	26.2	4.3106907620664
4	2856	26.21	4.3001179708986
4	2857	26.22	4.2981226452021
4	2858	26.23	4.3157939504105
4	2859	26.24	4.3208013370714
4	2860	26.25	4.3094973429966
4	2861	26.26	4.2941465950233
4	2862	26.27	4.2946055457217
4	2863	26.28	4.2948237155449
4	2864	26.29	4.3195383174198
4	2865	26.3	4.3209322676401
4	2866	26.31	4.3153487964618
4	2867	26.32	4.3108147911793
4	2868	26.33	4.3004220357066
4	2869	26.34	4.2966561966479
4	2870	26.35	4.3155149991962
4	2871	26.36	4.2981099029653
4	2872	26.37	4.308175227258
4	2873	26.38	4.3152374008754
4	2874	26.39	4.3022140224135
4	2875	26.4	4.3026467840707
4	2876	26.41	4.306041927072
4	2877	26.42	4.3058834456108
4	2878	26.43	4.2928935845264
4	2879	26.44	4.3126404718379
4	2880	26.45	4.3085521491233
4	2881	26.46	4.2960654466034
4	2882	26.47	4.2935645279722
4	2883	26.48	4.3109673149822
4	2884	26.49	4.3193083284063
4	2885	26.5	4.3117574858049
4	2886	26.51	4.2994656035331
4	2887	26.52	4.3037667050542
4	2888	26.53	4.3043097071768
4	2889	26.54	4.3079243267967
4	2890	26.55	4.2921550152707
4	2891	26.56	4.3155146620262
4	2892	26.57	4.2938890208377
4	2893	26.58	4.313538203302
4	2894	26.59	4.3049362604025
4	2895	26.6	4.3091665242485
4	2896	26.61	4.3012951408996
4	2906	26.62	4.3072389633163
4	2907	26.63	4.294265580018
4	2908	26.64	4.3143766748712
4	2909	26.65	4.3125552370334
4	2910	26.66	4.305515828435
4	2911	26.67	4.3053964913399
4	2912	26.68	4.3150895776985
4	2913	26.69	4.2988641992173
[...]
22	15867	113.72	855.38220848302
22	15868	113.73	855.50206637537
22	15869	113.74	855.62185168575
22	15870	113.75	855.74170541452
22	15871	113.76	855.86162685828
22	15872	113.77	855.98147520621
22	15873	113.78	856.10139162115
22	15874	113.79	856.22137540391
22	15875	113.8	856.34128559267
22	15876	113.81	856.46126334157
22	15877	113.82	856.58130795733
22	15878	113.83	856.70127849997
22	15879	113.84	856.82131661773
22	15880	113.85	856.94142161739
22	15881	113.86	857.06145207191
22	15882	113.87	857.18140889489
22	15883	113.88	857.30143366235
22	15884	113.89	857.42152568168
22	15885	113.9	857.54154359709
22	15886	113.91	857.66162929358
22	15887	113.92	857.78178208049
22	15888	113.93	857.90186030167
22	15889	113.94	858.02200596768
22	15890	113.95	858.14221839176
22	15891	113.96	858.26235580265
22	15892	113.97	858.38256050696
22	15893	113.98	858.50283181973
22	15894	113.99	858.62302768187
22	15895	114	858.74329018444
22	15896	114.01	858.86361865002
22	15897	114.02	858.98387124867
22	15898	114.03	859.10419053449
22	15899	114.04	859.22457582965
22	15900	114.05	859.34488484677
22	15901	114.06	859.46526046805
22	15902	114.07	859.58570201673
22	15903	114.08	859.70606688422
22	15904	114.09	859.82649804407
22	15905	114.1	859.94699482319
22	15906	114.11	860.06741453096
22	15907	114.12	860.18790040775
22	15908	114.13	860.30845178194
22	15909	114.14	860.42892570321
22	15910	114.15	860.54946516965
22	15911	114.16	860.67006951685
22	15912	114.17	860.79059604938
22	15913	114.18	860.91118820439
22	15914	114.19	861.03184531677
22	15915	114.2	861.15256722362
22	15916	114.21	861.27335326475
22	15917	114.22	861.39405982
22	15918	114.23	861.51483107948
22	15919	114.24	861.63566638426
22	15920	114.25	861.75642187691
22	15921	114.26	861.87724180098
22	15922	114.27	861.99812550083
22	15923	114.28	862.11892907381
22	15924	114.29	862.23979699762
22	15925	114.3	862.36072861784
22	15926	114.31	862.48157980337
22	15927	114.32	862.60235020277
22	15928	114.33	862.72303815981
22	15929	114.34	862.84364211564
22	15930	114.35	862.96416060497
22	15931	114.36	863.08459225253
22	15932	114.37	863.20493576868
22	15933	114.38	863.32519109714
22	15934	114.39	863.44535936783
22	15935	114.4	863.5654416997
22	15936	114.41	863.68543920087
22	15937	114.42	863.80535296876
22	15938	114.43	863.92518409019
22	15939	114.44	864.0449336415
22	15940	114.45	864.16460268872
22	15941	114.46	864.28419123517
22	15942	114.47	864.40369928769
22	15943	114.48	864.52312790899
22	15944	114.49	864.6424781516
22	15945	114.5	864.76175105796
22	15946	114.51	864.88094766064
22	15947	114.52	865.00006898232
22	15948	114.53	865.119116036
22	15949	114.54	865.23808982504
22	15950	114.55	865.35699134327
22	15970	114.56	865.47582064586
22	15971	114.57	865.59457779041
22	15972	114.58	865.71326376623
22	15973	114.59	865.83187955328
22	15974	114.6	865.95042612235
22	15975	114.61	866.06890443503
22	15995	114.62	866.18731544391
22	15996	114.63	866.30566009265
22	15997	114.64	866.42393931607
22	15998	114.65	866.54215320956
22	15999	114.66	866.66030187017
22	16000	114.67	866.77838622728
22	16001	114.68	866.89640720157
22	16021	114.69	867.01436570518
22	16022	114.7	867.1322626418
22	16023	114.71	867.25009890665
22	16024	114.72	867.36787462499
22	16025	114.73	867.48573095317
22	16026	114.74	867.60366721737
22	16027	114.75	867.72154172076
22	16028	114.76	867.83935536629
22	16029	114.77	867.9572498999
22	16030	114.78	868.07522464836
22	16031	114.79	868.19313738773
22	16032	114.8	868.31098832037
22	16033	114.81	868.4287783551
22	16034	114.82	868.54664942683
22	16035	114.83	868.66460086589
22	16036	114.84	868.78249097477
22	16037	114.85	868.90032000143
22	16038	114.86	869.0180881933
22	16039	114.87	869.13593775264
22	16040	114.88	869.25386801135
22	16041	114.89	869.37173701079
22	16042	114.9	869.4896869863
22	16043	114.91	869.60771665649
22	16044	114.92	869.72568342907
22	16045	114.93	869.84358823413
22	16046	114.94	869.96143199306
22	16047	114.95	870.07935683268
22	16048	114.96	870.19736151115
22	16049	114.97	870.31530358653
22	16050	114.98	870.43318399061
22	16051	114.99	870.55100364656
22	16052	115	870.66876291737
22	16053	115.01	870.78660385261
22	16054	115.02	870.90452579396
22	16055	115.03	871.02238640143
22	16056	115.04	871.14018659931
22	16057	115.05	871.25806877531
22	16058	115.06	871.37603174888
22	16059	115.07	871.49393288037
22	16060	115.08	871.61177310292
22	16061	115.09	871.72955284519
22	16062	115.1	871.84741455934
22	16063	115.11	871.96535759151
22	16064	115.12	872.08323926845
22	16065	115.13	872.20106005033
22	16066	115.14	872.31882039423
22	16067	115.15	872.43666314476
22	16068	115.16	872.55458719388
22	16069	115.17	872.67244952756
22	16070	115.18	872.79025108782
22	16071	115.19	872.90813496351
22	16072	115.2	873.02610007185
22	16073	115.21	873.14400318635
22	16074	115.22	873.26184525521
22	16075	115.23	873.37962680262
22	16076	115.24	873.49749069262
22	16077	115.25	873.61543628061
22	16078	115.26	873.73332018498
22	16079	115.27	873.85114295542
22	16080	115.28	873.96904791392
22	16081	115.29	874.08703403467
22	16082	115.3	874.20495792672
22	16083	115.31	874.32282054922
22	16084	115.32	874.44062248351
22	16085	115.33	874.55850695162
22	16086	115.34	874.67647331486
22	16087	115.35	874.79437794071
22	16088	115.36	874.91222143258
22	16089	115.37	875.03000440012
22	16090	115.38	875.14787027673
22	16091	115.39	875.26581842521
22	16092	115.4	875.38370505512
22	16093	115.41	875.50153079651
22	16094	115.42	875.61929628451
22	16095	115.43	875.73714465955
22	16096	115.44	875.85507497756
22	16097	115.45	875.97294379429
22	16098	115.46	876.09075177283
22	16099	115.47	876.20864274848
22	16100	115.48	876.32661579511
22	16101	115.49	876.44452681906
22	16102	115.5	876.56237650994
22	16103	115.51	876.6801655515
22	16104	115.52	876.79803798569
22	16105	115.53	876.9159929056
22	16106	115.54	877.03388606658
22	16107	115.55	877.15171817671
22	16127	115.56	877.26948994659
22	16128	115.57	877.38734541545
22	16129	115.58	877.50528370288
22	16130	115.59	877.62316060328
22	16131	115.6	877.7409768497
22	16132	115.61	877.85873292768
22	16152	115.62	877.97657296609
22	16153	115.63	878.09449610686
22	16154	115.64	878.21235787011
22	16155	115.65	878.33030286802
22	16156	115.66	878.44833025981
22	16157	115.67	878.56629513628
22	16158	115.68	878.68419827658
22	16178	115.69	878.80204046071
22	16179	115.7	878.91982225413
22	16180	115.71	879.0376881368
22	16181	115.72	879.15563728726
22	16182	115.73	879.27352498792
22	16183	115.74	879.39135184024
22	16184	115.75	879.50926234448
22	16185	115.76	879.62725551166
22	16186	115.77	879.74518647371
22	16187	115.78	879.863056052
22	16188	115.79	879.98100950538
22	16189	115.8	880.09904587093
22	16190	115.81	880.21701976447
22	16191	115.82	880.33493185889
22	16192	115.83	880.45278282843
22	16193	115.84	880.57071788971
22	16194	115.85	880.68873611615
22	16195	115.86	880.80669205595
22	16196	115.87	880.92458641707
22	16197	115.88	881.0424199079
22	16198	115.89	881.16033791871
22	16199	115.9	881.27833955495
22	16200	115.91	881.39627925566
22	16201	115.92	881.51415776003
22	16202	115.93	881.63212041935
22	16203	115.94	881.75016636857
22	16204	115.95	881.86815014493
22	16205	115.96	881.98621776098
22	16206	115.97	882.10436837004
22	16207	115.98	882.22245589503
22	16208	115.99	882.34048113153
22	16209	116	882.45859027305
22	16210	116.01	882.57678249724
22	16211	116.02	882.69491159635
22	16212	116.03	882.8131240434
22	16213	116.04	882.93141903669
22	16214	116.05	883.04965013519
22	16215	116.06	883.16796421727
22	16216	116.07	883.28636049914
22	16217	116.08	883.40469217705
22	16218	116.09	883.52310606895
22	16219	116.1	883.64160150554
22	16220	116.11	883.76017843481
22	16221	116.12	883.87883628566
22	16222	116.13	883.9975750072
22	16223	116.14	884.11639403187
22	16224	116.15	884.23529319758
22	16225	116.16	884.35427194154
22	16226	116.17	884.47333005971
22	16227	116.18	884.59246699454
22	16228	116.19	884.71168254393
22	16229	116.2	884.8309761555
22	16230	116.21	884.95034762907
22	16231	116.22	885.06979641749
22	16232	116.23	885.18932232248
22	16233	116.24	885.30892480201
22	16234	116.25	885.42860337191
22	16235	116.26	885.54835749853
22	16236	116.27	885.66818714615
22	16237	116.28	885.78809178444
22	16238	116.29	885.90807126916
22	16239	116.3	886.02827559736
22	16240	116.31	886.14855284076
22	16241	116.32	886.26890281247
22	16242	116.33	886.38932499952
22	16243	116.34	886.5098192169
22	16244	116.35	886.63038495669
22	16245	116.36	886.75102203578
22	16246	116.37	886.87172995124
22	16247	116.38	886.99250852186
22	16248	116.39	887.11335724968
22	16249	116.4	887.23427595536
22	16250	116.41	887.35526414591
22	16251	116.42	887.47632134824
22	16252	116.43	887.59744707769
22	16253	116.44	887.71864131904
22	16254	116.45	887.83990359066
22	16255	116.46	887.96123377244
22	16256	116.47	888.08263138699
22	16257	116.48	888.20409626265
22	16258	116.49	888.32562792685
22	16259	116.5	888.44722620978
22	16260	116.51	888.56889064367
22	16261	116.52	888.69062105351
22	16262	116.53	888.81241697617
22	16263	116.54	888.93427822996
22	16264	116.55	889.0562043563
22	16284	116.56	889.17819516761
22	16285	116.57	889.30025020977
22	16286	116.58	889.42236901063
22	16287	116.59	889.54470631022
22	16288	116.6	889.66710549645
22	16289	116.61	889.78956655481
22	16309	116.62	889.9120890491
22	16310	116.63	890.03467278701
22	16311	116.64	890.15731733637
22	16312	116.65	890.28002249438
22	16313	116.66	890.40278783292
22	16314	116.67	890.52561314672
22	16315	116.68	890.64849801162
22	16335	116.69	890.77144222027
22	16336	116.7	890.89444535245
22	16337	116.71	891.01750719914
22	16338	116.72	891.14062734395
22	16339	116.73	891.26380557654
22	16340	116.74	891.38704148434
22	16341	116.75	891.51033485605
22	16342	116.76	891.6336852828
22	16343	116.77	891.75709255261
22	16344	116.78	891.88055626028
22	16345	116.79	892.00407619349
22	16346	116.8	892.12765195062
22	16347	116.81	892.25128331922
22	16348	116.82	892.37496990124
22	16349	116.83	892.49871148438
22	16350	116.84	892.62250767405
22	16351	116.85	892.74635825834
22	16352	116.86	892.87026284613
22	16353	116.87	892.99422122604
22	16354	116.88	893.11823301035
22	16355	116.89	893.24229798844
22	16356	116.9	893.36657488794
22	16357	116.91	893.49090304312
22	16358	116.92	893.61528224815
22	16359	116.93	893.73971213176
22	16360	116.94	893.86419248932
22	16361	116.95	893.98872295277
22	16362	116.96	894.11330331884
22	16363	116.97	894.23793322267
22	16364	116.98	894.36261246247
22	16365	116.99	894.48734067655
22	16366	117	894.61211766474
22	16367	117.01	894.73694306848
22	16368	117.02	894.86181668928
22	16369	117.03	894.98673817176
22	16370	117.04	895.11170731926
22	16371	117.05	895.23672377944
22	16372	117.06	895.36178735757
22	16373	117.07	895.4868977044
22	16374	117.08	895.61205462724
22	16375	117.09	895.73725777985
22	16376	117.1	895.86250697169
22	16377	117.11	895.98780185952
22	16378	117.12	896.11314225501
22	16379	117.13	896.2385278179
22	16380	117.14	896.36395836218
22	16381	117.15	896.48943355054
22	16382	117.16	896.61495319934
22	16383	117.17	896.7405169742
22	16384	117.18	896.86612469393
22	16385	117.19	896.99177602706
22	16386	117.2	897.11747079494
22	16387	117.21	897.24320866894
22	16388	117.22	897.36898947302
22	16389	117.23	897.49481288143
22	16390	117.24	897.62067872073
22	16391	117.25	897.74658666806
22	16392	117.26	897.87253655266
22	16393	117.27	897.99852805448
22	16394	117.28	898.12456100553
22	16395	117.29	898.25063508858
22	16396	117.3	898.37675013841
22	16397	117.31	898.50290584059
22	16398	117.32	898.62910203273
22	16399	117.33	898.75533840321
22	16400	117.34	898.88161479245
22	16401	117.35	899.00793089162
22	16402	117.36	899.13428654405
22	16403	117.37	899.26068144364
22	16404	117.38	899.38711543666
22	16405	117.39	899.51358821978
22	16406	117.4	899.64009964219
22	16407	117.41	899.7666494033
22	16408	117.42	899.89323735531
22	16409	117.43	900.01986320034
22	16410	117.44	900.1465267936
22	16411	117.45	900.27322783993
22	16412	117.46	900.39996629639
22	16413	117.47	900.52674186935
22	16414	117.48	900.65355441996
22	16415	117.49	900.78040365732
22	16416	117.5	900.90728944517
22	16417	117.51	901.03421149534
22	16418	117.52	901.16116967505
22	16419	117.53	901.28816369885
22	16420	117.54	901.41519343664
22	16421	117.55	901.54225860565
22	16441	117.56	901.66935907927
22	16442	117.57	901.79649457746
22	16443	117.58	901.92366497628
22	16444	117.59	902.05086999839
22	16445	117.6	902.17810952333
22	16446	117.61	902.30538327647
22	16466	117.62	902.4326911401
22	16467	117.63	902.56003284226
22	16468	117.64	902.68740826871
22	16469	117.65	902.81481715018
22	16470	117.66	902.94225937552
22	16471	117.67	903.06973467811
22	16472	117.68	903.19724294958
22	16492	117.69	903.324783926
22	16493	117.7	903.45235750245
22	16494	117.71	903.57996341768
22	16495	117.72	903.70760156955
22	16496	117.73	903.8352716995
22	16497	117.74	903.96297370878
22	16498	117.75	904.09070734154
22	16499	117.76	904.21847250209
22	16500	117.77	904.34626893722
22	16501	117.78	904.47409622629
22	16502	117.79	904.60195412287
22	16503	117.8	904.72984272389
22	16504	117.81	904.85776178322
22	16505	117.82	904.98571126122
22	16506	117.83	905.11369091386
22	16507	117.84	905.24170065795
22	16508	117.85	905.36974025214
22	16509	117.86	905.49780961608
22	16510	117.87	905.62590851105
22	16511	117.88	905.75403685958
22	16512	117.89	905.88219442559
22	16513	117.9	906.01038113437
22	16514	117.91	906.1385967525
22	16515	117.92	906.26684120804
22	16516	117.93	906.39511427018
22	16517	117.94	906.52341552819
22	16518	117.95	906.65174475822
22	16519	117.96	906.78010207429
22	16520	117.97	906.90848725288
22	16521	117.98	907.03690040873
22	16522	117.99	907.16534131867
22	16523	118	907.29380990153
22	16524	118.01	907.42230593704
22	16525	118.02	907.55082936649
22	16526	118.03	907.67937997222
22	16527	118.04	907.80795769811
22	16528	118.05	907.93656232909
22	16529	118.06	908.06519381152
22	16530	118.07	908.19385193297
22	16531	118.08	908.32253664228
22	16532	118.09	908.45124772962
22	16533	118.1	908.57998514624
22	16534	118.11	908.70874868493
22	16535	118.12	908.83753829935
22	16536	118.13	908.9663537849
22	16537	118.14	909.09519509754
22	16538	118.15	909.22406203531
22	16539	118.16	909.35295420111
22	16540	118.17	909.4818714
22	16541	118.18	909.6108137657
22	16542	118.19	909.73978110366
22	16543	118.2	909.86877354776
22	16544	118.21	909.99779090389
22	16545	118.22	910.12683314584
22	16546	118.23	910.25590008196
22	16547	118.24	910.38499167946
22	16548	118.25	910.51410774926
22	16549	118.26	910.64324826072
22	16550	118.27	910.77241302731
22	16551	118.28	910.9016020205
22	16552	118.29	911.03081505635
22	16553	118.3	911.16005210837
22	16554	118.31	911.28931299516
22	16555	118.32	911.41859769229
22	16556	118.33	911.5479060209
22	16557	118.34	911.67723795855
22	16558	118.35	911.80659332892
22	16559	118.36	911.93597211153
22	16560	118.37	912.06537413264
22	16561	118.38	912.19479937364
22	16562	118.39	912.32424766332
22	16563	118.4	912.45371861861
22	16564	118.41	912.58321207546
22	16565	118.42	912.7127281851
22	16566	118.43	912.84226678387
22	16567	118.44	912.9718280229
22	16568	118.45	913.10141173891
22	16569	118.46	913.23101795411
22	16570	118.47	913.36064650727
22	16571	118.48	913.49029738891
22	16572	118.49	913.61997044033
22	16573	118.5	913.74966565374
22	16574	118.51	913.87938287292
22	16575	118.52	914.0091220918
22	16576	118.53	914.13888315657
22	16577	118.54	914.26866606282
22	16578	118.55	914.39847065926
22	16598	118.56	914.52829694306
22	16599	118.57	914.65814476536
22	16600	118.58	914.78801412492
22	16601	118.59	914.91807778606
22	16602	118.6	915.04816137598
22	16603	118.61	915.1782649002
22	16623	118.62	915.3083882264
22	16624	118.63	915.43853136159
22	16625	118.64	915.56869417579
22	16626	118.65	915.69887630343
22	16627	118.66	915.82907762169
22	16628	118.67	915.95929830062
22	16629	118.68	916.08953821762
22	16649	118.69	916.21979754239
22	16650	118.7	916.35007615262
22	16651	118.71	916.48037403576
22	16652	118.72	916.61069107214
22	16653	118.73	916.74102727621
22	16654	118.74	916.87138253056
22	16655	118.75	917.00175685089
22	16656	118.76	917.13215012211
22	16657	118.77	917.26256236111
22	16658	118.78	917.39299345508
22	16659	118.79	917.52344342211
22	16660	118.8	917.6539121516
22	16661	118.81	917.78439966284
22	16662	118.82	917.91490584749
22	16663	118.83	918.04543072594
22	16664	118.84	918.17614950331
22	16665	118.85	918.30688540505
22	16666	118.86	918.4376384582
22	16667	118.87	918.56840857088
22	16668	118.88	918.69919577087
22	16669	118.89	918.82999996845
22	16670	118.9	918.96082119235
22	16671	118.91	919.09165935496
22	16672	118.92	919.22251448628
22	16673	118.93	919.35338650075
22	16674	118.94	919.48427504918
22	16675	118.95	919.61518005308
22	16676	118.96	919.74610169877
22	16677	118.97	919.87703990776
22	16678	118.98	920.00799486565
22	16679	118.99	920.13896649401
22	16680	119	920.26995481986
22	16681	119.01	920.40113681456
22	16682	119.02	920.5323339663
22	16683	119.03	920.66354631496
22	16684	119.04	920.79477379857
22	16685	119.05	920.92601645771
22	16686	119.06	921.05727423233
22	16687	119.07	921.18854716395
22	16688	119.08	921.31983519446
22	16689	119.09	921.45113836574
22	16690	119.1	921.58245662156
22	16691	119.11	921.71379000445
22	16692	119.12	921.84513846003
22	16693	119.13	921.97650203174
22	16694	119.14	922.10805906799
22	16695	119.15	922.23962955369
22	16696	119.16	922.37121353901
22	16697	119.17	922.50281098769
22	16698	119.18	922.63442195038
22	16699	119.19	922.76604639257
22	16700	119.2	922.89768436532
22	16701	119.21	923.02933583583
22	16702	119.22	923.16100085557
22	16703	119.23	923.29267939345
22	16704	119.24	923.42437150133
22	16705	119.25	923.55625688151
22	16706	119.26	923.6881543358
22	16707	119.27	923.8200635377
22	16708	119.28	923.9519844771
22	16709	119.29	924.08391736276
22	16710	119.3	924.21586218412
22	16711	119.31	924.34781914843
22	16712	119.32	924.47978824469
22	16713	119.33	924.61176953909
22	16714	119.34	924.74376302207
22	16715	119.35	924.8757687527
22	16716	119.36	925.00796763304
22	16717	119.37	925.14017728552
22	16718	119.38	925.27239777485
22	16719	119.39	925.40462910722
22	16720	119.4	925.5368713474
22	16721	119.41	925.66912450297
22	16722	119.42	925.80138863875
22	16723	119.43	925.93366376366
22	16724	119.44	926.06594994258
22	16725	119.45	926.19842909164
22	16726	119.46	926.33091769123
22	16727	119.47	926.46341581256
22	16728	119.48	926.59592348206
22	16729	119.49	926.72844077092
22	16730	119.5	926.86096770669
22	16731	119.51	926.99350436046
22	16732	119.52	927.12605076097
22	16733	119.53	927.25860697917
22	16734	119.54	927.39135603889
22	16735	119.55	927.5241134769
22	16755	119.56	927.65687936948
22	16756	119.57	927.7896537607
22	16757	119.58	927.92243672663
22	16758	119.59	928.05522831235
22	16759	119.6	928.18802820932
22	16760	119.61	928.32083646872
22	16780	119.62	928.45365331389
22	16781	119.63	928.58666258454
22	16782	119.64	928.71967902406
22	16783	119.65	928.85270285941
22	16784	119.66	928.98573415294
22	16785	119.67	929.11877300046
22	16786	119.68	929.25181946493
22	16806	119.69	929.38487362674
22	16807	119.7	929.51812032565
22	16808	119.71	929.65137317104
22	16809	119.72	929.78463224924
22	16810	119.73	929.91789764
22	16811	119.74	930.05116942911
22	16812	119.75	930.18444769694
22	16813	119.76	930.31773252881
22	16814	119.77	930.4512097173
22	16815	119.78	930.58469207922
22	16816	119.79	930.7181797048
22	16817	119.8	930.85167268908
22	16818	119.81	930.98517112168
22	16819	119.82	931.11867509809
22	16820	119.83	931.25218470732
22	16821	119.84	931.3858865162
22	16822	119.85	931.51959243824
22	16823	119.86	931.65330256813
22	16824	119.87	931.78701701768
22	16825	119.88	931.92073588085
22	16826	119.89	932.05445926973
22	16827	119.9	932.18818727753
22	16828	119.91	932.32210735383
22	16829	119.92	932.45603068844
22	16830	119.93	932.58995699542
22	16831	119.94	932.72388640619
22	16832	119.95	932.85781916459
22	16833	119.96	932.99194335712
22	16834	119.97	933.12606955536
22	16835	119.98	933.26019800623
22	16836	119.99	933.39432885105
22	16837	120	933.52846220827

